*GROWTH ASPECTS OUTPUT FILE

*DSSAT Cropping System Model Ver. 4.7.5.036 -develop  MAY 01, 2021 15:30:54

*RUN   1        : USAID                     MZCER046 USAID001    1
 MODEL          : MZCER046 - Maize
 EXPERIMENT     : USAID001 MZ limatic forecasts
 DATA PATH      :
 TREATMENT  1   : USAID                     MZCER046
  
!                                                                                                                                                                                                                                      Root Dens. (cm/cm3) by soil depth (cm):
!                                                                                                                                                                                                                                      0-5    5-15   15-30   30-45   45-60   60-80  80-100
@YEAR DOY   DAS   DAP   L#SD   GSTD   LAID   LWAD   SWAD   GWAD   RWAD   VWAD   CWAD   G#AD   GWGD   HIAD   PWAD   P#AD   WSPD   WSGD   NSTD   EWSD  PST1A  PST2A   KSTD   LN%D   SH%D   HIPD   PWDD   PWTD     SLAD   CHTD   CWID   RDPD    RL1D    RL2D    RL3D    RL4D    RL5D    RL6D    RL7D   CDAD   LDAD   SDAD   SNW0C   SNW1C  DTTD
 2021 121    17     0    0.0      0   0.00      0      0      0      0      0      0      0    0.0  0.000      0      0  0.000  0.000  0.000  0.000  0.000  0.000  0.000   0.00   0.00   0.00      0      0      0.0   0.00   0.00   0.01    0.00    0.00    0.00    0.00    0.00    0.00    0.00      0      0      0       0       0 16.49
 2021 122    18     1    0.0      0   0.00      0      0      0      0      0      0      0    0.0  0.000      0      0  0.000  0.000  0.000  0.000  0.000  0.000  0.000   0.00   0.00   0.00      0      0      0.0   0.00   0.00   0.04    0.00    0.00    0.00    0.00    0.00    0.00    0.00      0      0      0       0       0 17.69
 2021 123    19     2    0.0      0   0.00      0      0      0      0      0      0      0    0.0  0.000      0      0  0.000  0.000  0.000  0.000  0.000  0.000  0.000   0.00   0.00   0.00      0      0      0.0   0.00   0.00   0.06    0.00    0.00    0.00    0.00    0.00    0.00    0.00      0      0      0       0       0 16.70
 2021 124    20     3    0.0      0   0.00      0      0      0      0      0      0      0    0.0  0.000      0      0  0.000  0.000  0.000  0.000  0.000  0.000  0.000   0.00   0.00   0.00      0      0      0.0   0.00   0.00   0.09    0.00    0.00    0.00    0.00    0.00    0.00    0.00      0      0      0       0       0 17.18
 2021 125    21     4    2.0      1   0.00     12     12      0     12     25     25      0    0.0  0.000      0      0  0.000  0.000  0.012  0.000  0.000  0.000  0.000   4.40   0.00   0.00      0      0     26.1   0.00   0.00   0.10    0.25    0.05    0.00    0.00    0.00    0.00    0.00      0      0      0       0       0 17.32
 2021 126    22     5    2.0      1   0.01     12     12      0     13     25     25      0    0.0  0.000      0      0  0.000  0.000  0.015  0.000  0.000  0.000  0.000   4.40   0.00   0.00      0      0     49.2   0.00   0.00   0.12    0.25    0.05    0.00    0.00    0.00    0.00    0.00      0      0      0       0       0 16.29
 2021 127    23     6    3.0      1   0.01     12     12      0     13     25     25      0    0.0  0.000      0      0  0.000  0.000  0.008  0.000  0.000  0.000  0.000   4.40   0.00   0.00      0      0     79.9   0.01   0.00   0.14    0.27    0.05    0.00    0.00    0.00    0.00    0.00      0      0      0       0       0 18.70
 2021 128    24     7    3.0      1   0.01     12     12      0     15     25     25      0    0.0  0.000      0      0  0.000  0.000  0.000  0.000  0.000  0.000  0.000   4.40   0.00   0.00      0      0    114.0   0.01   0.00   0.15    0.29    0.07    0.00    0.00    0.00    0.00    0.00      0      0      0       0       0 18.67
 2021 129    25     8    3.0      1   0.02     12     12      0     16     25     25      0    0.0  0.000      0      0  0.000  0.000  0.000  0.000  0.000  0.000  0.000   4.40   0.00   0.00      0      0    147.1   0.01   0.00   0.17    0.32    0.08    0.00    0.00    0.00    0.00    0.00      0      0      0       0       0 16.79
 2021 130    26     9    4.0      1   0.03     12     12      0     18     25     25      0    0.0  0.000      0      0  0.000  0.000  0.000  0.000  0.000  0.000  0.000   4.40   0.00   0.00      0      0    269.2   0.02   0.00   0.18    0.34    0.10    0.00    0.00    0.00    0.00    0.00      0      0      0       0       0 17.74
 2021 131    27    10    4.0      1   0.05     15     12      0     21     28     28      0    0.0  0.000      0      0  0.000  0.000  0.000  0.000  0.000  0.000  0.000   3.93   0.00   0.00      0      0    328.6   0.03   0.00   0.20    0.37    0.13    0.01    0.00    0.00    0.00    0.00      0      0      0       0       0 17.69
 2021 132    28    11    5.0      1   0.07     24     12      0     23     37     37      0    0.0  0.000      0      0  0.000  0.000  0.000  0.000  0.000  0.000  0.000   3.18   0.00   0.00      0      0    299.7   0.04   0.00   0.21    0.40    0.14    0.02    0.00    0.00    0.00    0.00      0      0      0       0       0 19.42
 2021 133    29    12    5.0      1   0.09     34     12      0     27     46     46      0    0.0  0.000      0      0  0.000  0.000  0.000  0.000  0.000  0.000  0.000   3.27   0.00   0.00      0      0    279.8   0.05   0.00   0.23    0.46    0.17    0.03    0.00    0.00    0.00    0.00      0      0      0       0       0 17.67
 2021 134    30    13    5.0      1   0.12     45     12      0     32     57     57      0    0.0  0.000      0      0  0.000  0.000  0.000  0.000  0.000  0.000  0.000   3.30   0.00   0.00      0      0    264.0   0.06   0.00   0.24    0.52    0.21    0.05    0.00    0.00    0.00    0.00      0      0      0       0       0 17.18
 2021 135    31    14    6.0      1   0.15     59     12      0     40     71     71      0    0.0  0.000      0      0  0.000  0.000  0.000  0.000  0.000  0.000  0.000   3.24   0.00   0.00      0      0    249.6   0.08   0.00   0.26    0.61    0.27    0.09    0.00    0.00    0.00    0.00      0      0      0       0       1 18.67
 2021 136    32    15    6.0      1   0.18     75     12      0     50     87     87      0    0.0  0.000      0      0  0.000  0.000  0.000  0.000  0.000  0.000  0.000   3.26   0.00   0.00      0      0    237.7   0.10   0.00   0.27    0.73    0.33    0.13    0.00    0.00    0.00    0.00      0      0      0       0       1 17.85
 2021 137    33    16    7.0      1   0.21     92     12      0     63    104    104      0    0.0  0.000      0      0  0.000  0.000  0.000  0.000  0.000  0.000  0.000   3.28   0.00   0.00      0      0    227.7   0.11   0.00   0.29    0.89    0.41    0.19    0.00    0.00    0.00    0.00      0      0      0       0       1 16.96
 2021 138    34    17    7.0      2   0.25    107     12      0     80    119    119      0    0.0  0.000      0      0  0.000  0.000  0.000  0.000  0.000  0.000  0.000   3.39   0.00   0.00      0      0    235.6   0.14   0.00   0.32    1.08    0.51    0.29    0.00    0.00    0.00    0.00      0      0      0       0       1 17.70
 2021 139    35    18    7.0      2   0.30    133     12      0     97    145    145      0    0.0  0.000      0      0  0.000  0.000  0.001  0.000  0.000  0.000  0.000   3.20   0.00   0.00      0      0    225.3   0.16   0.00   0.34    1.25    0.60    0.37    0.02    0.00    0.00    0.00      0      0      0       0       2 17.68
 2021 140    36    19    8.0      2   0.35    162     12      0    116    174    174      0    0.0  0.000      0      0  0.000  0.000  0.000  0.000  0.000  0.000  0.000   3.20   0.00   0.00      0      0    216.2   0.19   0.00   0.37    1.45    0.70    0.47    0.05    0.00    0.00    0.00      0      0      0       0       2 17.50
 2021 141    37    20    8.0      2   0.40    194     12      0    135    206    206      0    0.0  0.000      0      0  0.000  0.000  0.000  0.000  0.000  0.000  0.000   3.20   0.00   0.00      0      0    208.2   0.22   0.00   0.39    1.63    0.79    0.55    0.09    0.00    0.00    0.00      0      0      0       0       3 17.05
 2021 142    38    21    8.0      2   0.46    228     12      0    155    240    240      0    0.0  0.000      0      0  0.000  0.000  0.000  0.000  0.000  0.000  0.000   3.78   0.00   0.00      0      0    201.3   0.25   0.00   0.41    1.81    0.88    0.64    0.14    0.00    0.00    0.00      0      0      0       0       3 15.99
 2021 143    39    22    9.0      2   0.52    267     12      0    181    279    279      0    0.0  0.000      0      0  0.000  0.000  0.000  0.000  0.000  0.000  0.000   3.74   0.00   0.00      0      0    194.7   0.28   0.00   0.44    2.03    0.98    0.74    0.23    0.00    0.00    0.00      0      0      0       0       4 16.69
 2021 144    40    23    9.0      2   0.59    311     12      0    210    324    324      0    0.0  0.000      0      0  0.000  0.000  0.000  0.000  0.000  0.000  0.000   3.69   0.00   0.00      0      0    188.5   0.32   0.00   0.46    2.26    1.08    0.85    0.36    0.00    0.00    0.00      0      0      0       0       5 17.01
 2021 145    41    24    9.0      3   0.67    367     13      0    253    379    379      0    0.0  0.000      0      0  0.000  0.000  0.000  0.000  0.000  0.000  0.000   3.61   0.00   0.00      0      0    181.6   0.36   0.00   0.49    2.61    1.20    1.00    0.52    0.05    0.00    0.00      0      0      0       0       6 19.07
 2021 146    42    25   10.0      3   0.75    424     13      0    290    437    437      0    0.0  0.000      0      0  0.000  0.000  0.000  0.000  0.000  0.000  0.000   3.55   0.00   0.00      0      0    177.1   0.40   0.00   0.51    2.87    1.28    1.11    0.66    0.13    0.00    0.00      0      0      0       0       7 17.66
 2021 147    43    26   10.0      3   0.84    488     15      0    345    503    503      0    0.0  0.000      0      0  0.000  0.000  0.000  0.000  0.000  0.000  0.000   3.50   0.00   0.00      0      0    172.6   0.45   0.00   0.54    3.21    1.37    1.27    0.87    0.32    0.00    0.00      0      0      0       0       9 18.06
 2021 148    44    27   11.0      3   0.95    563     18      0    400    581    581      0    0.0  0.000      0      0  0.000  0.000  0.000  0.000  0.000  0.000  0.000   3.45   0.00   0.00      0      0    168.2   0.51   0.00   0.56    3.48    1.41    1.39    1.07    0.59    0.00    0.00      0      0      0       0      11 18.99
 2021 149    45    28   11.0      3   1.03    627     22      0    446    649    649      0    0.0  0.000      0      0  0.000  0.000  0.000  0.000  0.000  0.000  0.000   3.41   0.00   0.00      0      0    164.9   0.56   0.00   0.59    3.71    1.42    1.46    1.24    0.86    0.00    0.00      0      0      0       0      13 14.85
 2021 150    46    29   11.0      3   1.14    709     29      0    500    739    739      0    0.0  0.000      0      0  0.000  0.000  0.000  0.000  0.000  0.000  0.000   3.36   0.00   0.00      0      0    161.2   0.62   0.00   0.61    3.89    1.45    1.51    1.43    1.25    0.00    0.00      0      0      0       0      15 17.70
 2021 151    47    30   12.0      3   1.26    803     40      0    560    843    843      0    0.0  0.000      0      0  0.000  0.000  0.000  0.000  0.000  0.000  0.000   3.22   0.00   0.00      0      0    157.5   0.68   0.00   0.63    3.93    1.48    1.54    1.63    1.67    0.08    0.00      0      0      0       0      17 16.00
 2021 152    48    31   12.0      3   1.40    910     57      0    621    967    967      0    0.0  0.000      0      0  0.000  0.000  0.000  0.000  0.000  0.000  0.000   3.05   0.00   0.00      0      0    153.8   0.75   0.00   0.65    3.98    1.54    1.58    1.72    2.01    0.28    0.00      0      0      0       0      20 17.80
 2021 153    49    32   12.0      3   1.54   1021     79      0    678   1100   1100      0    0.0  0.000      0      0  0.000  0.000  0.000  0.000  0.000  0.000  0.000   2.90   0.00   0.00      0      0    150.5   0.83   0.00   0.67    4.00    1.61    1.64    1.75    2.17    0.59    0.00      0      0      0       0      23 18.10
 2021 154    50    33   13.0      3   1.67   1129    105      0    748   1235   1235      0    0.0  0.000      0      0  0.000  0.000  0.000  0.000  0.000  0.000  0.000   2.76   0.00   0.00      0      0    147.7   0.90   0.00   0.70    4.00    1.72    1.73    1.81    2.23    1.03    0.00      0      0      0       0      27 17.20
 2021 155    51    34   13.0      3   1.79   1235    136      0    803   1371   1371      0    0.0  0.000      0      0  0.000  0.000  0.007  0.000  0.000  0.000  0.000   2.62   0.00   0.00      0      0    145.0   0.96   0.00   0.72    4.00    1.82    1.80    1.87    2.28    1.37    0.00      0      0      0       0      30 16.70
 2021 156    52    35   13.0      3   1.90   1336    171      0    865   1507   1507      0    0.0  0.000      0      0  0.000  0.000  0.034  0.000  0.000  0.000  0.000   2.48   0.00   0.00      0      0    142.3   1.02   0.00   0.74    4.00    1.95    1.91    1.94    2.35    1.68    0.00      0      0      0       0      34 16.90
 2021 157    53    36   14.0      3   2.01   1442    215      0    931   1656   1656      0    0.0  0.000      0      0  0.000  0.000  0.057  0.000  0.000  0.000  0.000   2.33   0.00   0.00      0      0    139.2   1.08   0.00   0.76    4.00    2.12    2.05    2.04    2.45    1.93    0.00      0      0      0       0      39 18.60
 2021 158    54    37   14.0      3   2.09   1537    260      0   1009   1797   1797      0    0.0  0.000      0      0  0.000  0.000  0.080  0.000  0.000  0.000  0.000   2.20   0.00   0.00      0      0    136.3   1.13   0.00   0.78    4.00    2.41    2.29    2.20    2.61    2.04    0.00      0      0      0       0      43 17.70
 2021 159    55    38   15.0      3   2.16   1623    307      0   1065   1930   1930      0    0.0  0.000      0      0  0.000  0.000  0.103  0.000  0.000  0.000  0.000   2.10   0.00   0.00      0      0    133.2   1.16   0.00   0.80    4.00    2.62    2.46    2.32    2.73    2.13    0.00      0      0      0       0      48 17.00
 2021 160    56    39   15.0      3   2.22   1708    360      0   1140   2069   2069      0    0.0  0.000      0      0  0.000  0.000  0.122  0.000  0.000  0.000  0.000   1.99   0.00   0.00      0      0    130.1   1.20   0.00   0.83    4.00    2.78    2.59    2.41    2.82    2.20    0.30      0      0      0       0      54 17.80
 2021 161    57    40   15.0      3   2.26   1780    410      0   1174   2189   2189      0    0.0  0.000      0      0  0.000  0.000  0.137  0.000  0.000  0.000  0.000   1.98   0.00   0.00      0      0    127.0   1.22   0.00   0.84    4.00    2.84    2.64    2.44    2.84    2.22    0.49      0      0      0       0      59 15.60
 2021 162    58    41   16.0      3   2.29   1842    457      0   1190   2299   2299      0    0.0  0.000      0      0  0.000  0.000  0.140  0.000  0.000  0.000  0.000   1.97   0.00   0.00      0      0    124.2   1.23   0.00   0.86    4.00    2.86    2.65    2.45    2.85    2.22    0.61      0      0      0       0      65 13.70
 2021 163    59    42   16.0      3   2.33   1918    521      0   1250   2439   2439      0    0.0  0.000      0      0  0.000  0.000  0.140  0.000  0.000  0.000  0.000   1.92   0.00   0.00      0      0    121.4   1.25   0.00   0.88    4.00    2.96    2.73    2.50    2.90    2.26    0.94      0      0      0       0      71 16.50
 2021 164    60    43   16.0      3   2.49   2111    554      0   1256   2665   2665      0    0.0  0.000      0      0  0.000  0.000  0.141  0.000  0.000  0.000  0.000   1.81   0.00   0.00      0      0    117.9   1.34   0.00   0.90    4.00    2.96    2.74    2.51    2.90    2.26    1.00      0      0      0       0      77 16.20
 2021 165    61    44   17.0      3   2.58   2239    686      0   1265   2925   2925      0    0.0  0.000      0      0  0.000  0.000  0.146  0.000  0.000  0.000  0.000   1.69   0.00   0.00      0      0    115.0   1.39   0.00   0.92    4.00    2.98    2.75    2.51    2.90    2.27    1.05      0      0      0       0      84 18.10
 2021 166    62    45   17.0      3   2.61   2320    798      0   1284   3117   3117      0    0.0  0.000      0      0  0.000  0.000  0.163  0.000  0.000  0.000  0.000   1.63   0.00   0.00      0      0    112.3   1.40   0.00   0.94    4.00    3.03    2.79    2.54    2.93    2.28    1.11      0      0      0       0      90 15.70
 2021 167    63    46   17.0      3   2.61   2381    897      0   1322   3279   3282      0    0.0  0.000      3      0  0.000  0.000  0.182  0.000  0.000  0.000  0.000   1.58   0.00   0.00      0      3    109.5   1.41   0.00   0.96    4.00    3.16    2.89    2.61    2.99    2.33    1.15      0      0      0       0      97 15.70
 2021 168    64    47   18.0      3   2.60   2433    990      0   1359   3423   3431      0    0.0  0.000      8      0  0.000  0.000  0.191  0.000  0.000  0.000  0.000   1.55   0.00   0.00      0      8    106.8   1.41   0.00   0.98    4.00    3.28    2.99    2.67    3.06    2.38    1.20      0      0      0       0     103 15.50
 2021 169    65    48   18.0      3   2.58   2482   1088      0   1408   3570   3584      0    0.0  0.000     15      0  0.000  0.000  0.195  0.000  0.000  0.000  0.000   1.51   0.00   0.00      0     15    104.1   1.41   0.00   1.00    4.00    3.43    3.11    2.76    3.14    2.45    1.27      0      0      0       0     110 17.00
 2021 170    66    49   18.0      3   2.56   2525   1178      0   1464   3703   3726      0    0.0  0.000     24      0  0.000  0.000  0.199  0.000  0.000  0.000  0.000   1.48   0.00   0.01      0     24    101.5   1.41   0.00   1.00    4.00    3.61    3.26    2.86    3.24    2.52    1.35      0      0      0       0     117 16.40
 2021 171    67    50   19.0      3   2.54   2566   1268      0   1512   3834   3870      0    0.0  0.000     36      0  0.000  0.000  0.205  0.000  0.000  0.000  0.000   1.45   0.00   0.01      0     36     98.9   1.41   0.00   1.00    4.00    3.76    3.38    2.95    3.33    2.59    1.42      0      0      0       0     124 17.25
 2021 172    68    51   19.0      3   2.51   2600   1342      0   1576   3942   3996      0    0.0  0.000     54      0  0.000  0.000  0.212  0.000  0.000  0.000  0.000   1.42   0.00   0.01      0     54     96.4   1.41   0.00   1.00    4.00    3.96    3.55    3.06    3.44    2.67    1.51      0      0      0       0     132 15.50
 2021 173    69    52   19.0      3   2.48   2634   1415      0   1636   4049   4126      0    0.0  0.000     77      0  0.000  0.000  0.217  0.000  0.000  0.000  0.000   1.40   0.00   0.02      0     77     94.0   1.41   0.00   1.00    4.00    4.00    3.70    3.17    3.54    2.75    1.60      0      0      0       0     140 16.50
 2021 174    70    53   20.0      3   2.44   2667   1480      0   1705   4147   4257      0    0.0  0.000    110      0  0.000  0.148  0.217  0.000  0.000  0.000  0.000   1.38   0.00   0.03      0    110     91.7   1.41   0.00   1.00    4.00    4.00    3.87    3.29    3.66    2.84    1.69      0      0      0       0     148 16.80
 2021 175    71    54   20.0      3   2.41   2697   1535      0   1758   4232   4380      0    0.0  0.000    148      0  0.000  0.000  0.217  0.000  0.000  0.000  0.000   1.37   0.00   0.03      0    148     89.4   1.41   0.00   1.00    4.00    4.00    4.00    3.38    3.76    2.91    1.77      0      0      0       0     156 16.00
 2021 176    72    55   20.0      3   2.38   2725   1586      0   1793   4311   4499      0    0.0  0.000    188      0  0.000  0.000  0.221  0.000  0.000  0.000  0.000   1.35   0.00   0.04      0    188     87.2   1.41   0.00   1.00    4.00    4.00    4.00    3.44    3.82    2.95    1.82      0      0      0       0     165 15.60
 2021 177    73    56   20.0      3   2.35   2757   1618      0   1854   4374   4631      0    0.0  0.000    257      0  0.000  0.278  0.222  0.000  0.000  0.000  0.000   1.34   0.00   0.06      0    257     85.1   1.41   0.00   1.00    4.00    4.00    4.00    3.55    3.92    3.04    1.91      0      0      0       0     174 17.45
 2021 178    74    57   20.0      3   2.31   2785   1641      0   1894   4426   4750      0    0.0  0.000    324      0  0.000  0.187  0.224  0.000  0.000  0.000  0.000   1.33   0.00   0.07      0    324     83.0   1.41   0.00   1.00    4.00    4.00    4.00    3.62    3.99    3.09    1.96      0      0      0       0     183 15.70
 2021 179    75    58   20.0      3   2.28   2811   1647      0   1934   4458   4859      0    0.0  0.000    401      0  0.327  0.552  0.223  0.000  0.000  0.000  0.000   1.33   0.00   0.08      0    401     81.0   1.41   0.00   1.00    3.98    4.00    4.00    3.70    4.00    3.15    2.03      0      0      0       0     193 15.50
 2021 180    76    59   20.0      3   2.24   2833   1683      0   1962   4515   4952      0    0.0  0.000    437      0  0.449  0.633  0.221  0.000  0.000  0.000  0.000   1.32   0.00   0.09      0    437     79.0   1.41   0.00   1.00    3.96    4.00    4.00    3.76    4.00    3.19    2.08      0      0      0       0     203 16.10
 2021 181    77    60   20.0      3   2.20   2851   1713      0   1986   4564   5031      0    0.0  0.000    467      0  0.495  0.664  0.216  0.000  0.000  0.000  0.000   1.31   0.00   0.09      0    467     77.1   1.41   0.00   1.00    3.94    4.00    4.00    3.81    4.00    3.22    2.12      0      0      0       0     212 15.00
 2021 182    78    61   20.0      3   2.16   2872   1747      0   1997   4619   5120      0    0.0  0.000    501      0  0.434  0.623  0.217  0.000  0.000  0.000  0.000   1.30   0.00   0.10      0    501     75.3   1.41   0.00   1.00    4.00    4.00    4.00    3.83    4.00    3.23    2.13      0      0      0       0     222 14.90
 2021 183    79    62   20.0      4   2.11   2841   1910      0   1997   4750   5328      0    0.0  0.000    578      0  0.000  0.000  0.211  0.000  0.000  0.000  0.000   1.27   0.00   0.11      0    578     74.2   1.41   0.00   1.00    4.00    4.00    4.00    3.83    4.00    3.23    2.14      0      0      0       0     232 16.00
 2021 184    80    63   20.0      4   2.06   2807   2054      0   1997   4860   5515      0    0.0  0.000    654      0  0.000  0.000  0.207  0.000  0.000  0.000  0.000   1.24   0.00   0.12      0    654     73.2   1.41   0.00   1.00    4.00    4.00    4.00    3.82    3.99    3.23    2.14      0      0      0       0     242 15.20
 2021 185    81    64   20.0      4   2.00   2770   2168      0   1994   4939   5644      0    0.0  0.000    706      0  0.372  0.582  0.219  0.000  0.000  0.000  0.000   1.23   0.00   0.13      0    706     72.3   1.41   0.00   1.00    4.00    4.00    4.00    3.82    3.99    3.22    2.14      0      0      0       0     252 15.25
 2021 186    82    65   20.0      4   1.95   2732   2292      0   1993   5024   5802      0    0.0  0.000    779      0  0.000  0.000  0.226  0.000  0.000  0.000  0.000   1.21   0.00   0.13      0    779     71.4   1.41   0.00   1.00    4.00    4.00    3.99    3.81    3.98    3.22    2.14      0      0      0       0     262 15.30
 2021 187    83    66   20.0      4   1.90   2691   2379      0   1988   5071   5888      0    0.0  0.000    817      0  0.423  0.616  0.229  0.000  0.000  0.000  0.000   1.20   0.00   0.14      0    817     70.5   1.41   0.00   1.00    4.00    4.00    3.97    3.81    3.96    3.21    2.14      0      0      0       0     272 14.50
 2021 188    84    67   20.0      4   1.85   2649   2500      0   1987   5149   6042      0    0.0  0.000    894      0  0.028  0.353  0.232  0.000  0.000  0.000  0.000   1.18   0.00   0.15      0    894     69.8   1.41   0.00   1.00    4.00    4.00    3.95    3.79    3.94    3.22    2.15      0      0      0       0     282 15.70
 2021 189    85    68   20.0      4   1.80   2603   2615      0   1985   5219   6188      0    0.0  0.000    969      0  0.000  0.000  0.229  0.000  0.000  0.000  0.000   1.17   0.00   0.16      0    969     69.2   1.41   0.00   1.00    4.00    4.00    3.93    3.77    3.92    3.22    2.16      0      0      0       0     292 14.40
 2021 190    86    69   20.0      4   1.73   2556   2663      0   1978   5219   6195      0    0.0  0.000    976      0  0.794  0.863  0.231  0.000  0.000  0.000  0.000   1.17   0.00   0.16      0    976     67.6   1.41   0.00   1.00    3.99    3.99    3.91    3.75    3.90    3.21    2.16      0      0      0       0     302 14.80
 2021 191    87    70   20.0      4   1.66   2507   2699      0   1970   5206   6185      0    0.0  0.000    979      0  0.833  0.889  0.233  0.000  0.000  0.000  0.000   1.17   0.00   0.16      0    979     66.1   1.41   0.00   1.00    3.97    3.97    3.89    3.73    3.88    3.21    2.15      0      0      0       0     312 15.30
 2021 192    88    71   20.0      4   1.58   2455   2723      0   1961   5178   6158      0    0.0  0.000    981      0  0.905  0.937  0.222  0.000  0.000  0.000  0.000   1.18   0.00   0.16      0    981     64.4   1.41   0.00   1.00    3.95    3.95    3.87    3.71    3.87    3.19    2.15      0      0      0       0     322 16.35
 2021 193    89    72   20.0      4   1.51   2400   2735      0   1952   5135   6116      0    0.0  0.000    981      0  0.949  0.966  0.207  0.000  0.000  0.000  0.000   1.19   0.00   0.16      0    981     62.8   1.41   0.00   1.00    3.93    3.93    3.85    3.69    3.85    3.17    2.15      0      0      0       0     332 16.35
 2021 194    90    73   20.0      5   1.44   2400   2688     60   1942   5088   6129   1148    5.3  0.010   1041      6  0.951  0.968  0.197  0.000  0.000  0.000  0.000   1.18   5.79   0.17      0   1041     59.8   1.41   0.00   1.00    3.93    3.93    3.85    3.69    3.85    3.17    2.15      0      0      0       0     341 16.00
 2021 195    91    74   20.0      5   1.37   2400   2657    104   1932   5057   6142   1148    9.0  0.017   1085      6  0.940  0.961  0.197  0.000  0.000  0.000  0.000   1.18   9.55   0.18      0   1085     57.0   1.41   0.00   1.00    3.93    3.93    3.85    3.69    3.85    3.17    2.15      0      0      0       0     351 14.50
 2021 196    92    75   20.0      5   1.30   2400   2626    147   1922   5026   6154   1148   12.8  0.024   1128      6  0.943  0.963  0.193  0.000  0.000  0.000  0.000   1.18  13.01   0.18      0   1128     54.3   1.41   0.00   1.00    3.93    3.93    3.85    3.69    3.85    3.17    2.15      0      0      0       0     361 14.50
 2021 197    93    76   20.0      5   1.24   2400   2594    189   1913   4994   6165   1148   16.5  0.031   1171      6  0.950  0.967  0.190  0.000  0.000  0.000  0.000   1.17  16.18   0.19      0   1171     51.7   1.41   0.00   1.00    3.93    3.93    3.85    3.69    3.85    3.17    2.15      0      0      0       0     370 15.70
 2021 198    94    77   20.0      5   1.18   2400   2562    232   1903   4962   6175   1148   20.2  0.038   1213      6  0.960  0.974  0.187  0.000  0.000  0.000  0.000   1.17  19.10   0.20      0   1213     49.2   1.41   0.00   1.00    3.93    3.93    3.85    3.69    3.85    3.17    2.15      0      0      0       0     380 17.00
 2021 199    95    78   20.0      5   1.13   2400   2529    274   1894   4929   6184   1148   23.9  0.044   1255      6  0.956  0.971  0.184  0.000  0.000  0.000  0.000   1.17  21.84   0.20      0   1255     46.9   1.41   0.00   1.00    3.93    3.93    3.85    3.69    3.85    3.17    2.15      0      0      0       0     389 17.10
 2021 200    96    79   20.0      5   1.07   2400   2496    316   1884   4896   6194   1148   27.5  0.051   1297      6  0.962  0.975  0.180  0.000  0.000  0.000  0.000   1.16  24.38   0.21      0   1297     44.6   1.41   0.00   1.00    3.93    3.93    3.85    3.69    3.85    3.17    2.15      0      0      0       0     399 16.30
 2021 201    97    80   20.0      5   1.02   2400   2462    359   1875   4863   6203   1148   31.2  0.058   1340      6  0.956  0.971  0.177  0.000  0.000  0.000  0.000   1.16  26.78   0.22      0   1340     42.5   1.41   0.00   1.00    3.93    3.93    3.85    3.69    3.85    3.17    2.15      0      0      0       0     408 16.80
 2021 202    98    81   20.0      5   0.97   2400   2429    401   1865   4829   6211   1148   34.9  0.065   1382      6  0.956  0.971  0.174  0.000  0.000  0.000  0.000   1.15  29.03   0.22      0   1382     40.5   1.41   0.00   1.00    3.93    3.93    3.85    3.69    3.85    3.17    2.15      0      0      0       0     418 14.50
 2021 203    99    82   20.0      5   0.92   2400   2394    444   1856   4795   6219   1148   38.6  0.071   1425      6  0.958  0.973  0.171  0.000  0.000  0.000  0.000   1.15  31.14   0.23      0   1425     38.5   1.41   0.00   1.00    3.93    3.93    3.85    3.69    3.85    3.17    2.15      0      0      0       0     427 16.70
 2021 204   100    83   20.0      5   0.88   2400   2360    486   1847   4760   6228   1148   42.3  0.078   1467      6  0.952  0.969  0.168  0.000  0.000  0.000  0.000   1.15  33.14   0.24      0   1467     36.7   1.41   0.00   1.00    3.93    3.93    3.85    3.69    3.85    3.17    2.15      0      0      0       0     436 14.60
 2021 205   101    84   20.0      5   0.84   2400   2325    529   1838   4725   6235   1148   46.1  0.085   1510      6  0.951  0.968  0.165  0.000  0.000  0.000  0.000   1.14  35.03   0.24      0   1510     34.9   1.41   0.00   1.00    3.93    3.93    3.85    3.69    3.85    3.17    2.15      0      0      0       0     445 15.70
 2021 206   102    85   20.0      5   0.80   2400   2289    572   1828   4690   6243   1148   49.8  0.092   1553      6  0.945  0.964  0.162  0.000  0.000  0.000  0.000   1.14  36.83   0.25      0   1553     33.3   1.41   0.00   1.00    3.93    3.93    3.85    3.69    3.85    3.17    2.15      0      0      0       0     445 14.70
 2021 207   103    86   20.0      5   0.76   2400   2246    615   1819   4647   6243   1148   53.6  0.099   1596      6  1.000  1.000  0.158  0.000  0.000  0.000  0.000   1.14  38.53   0.26      0   1596     31.6   1.41   0.00   1.00    3.93    3.93    3.85    3.69    3.85    3.17    2.15      0      0      0       0     445 16.20
 2021 208   104    87   20.0      5   0.72   2400   2203    658   1810   4604   6243   1148   57.3  0.105   1639      6  1.000  1.000  0.155  0.000  0.000  0.000  0.000   1.13  40.15   0.26      0   1639     30.0   1.41   0.00   1.00    3.93    3.93    3.85    3.69    3.85    3.17    2.15      0      0      0       0     445 15.00
 2021 209   105    88   20.0      5   0.69   2400   2160    701   1801   4561   6243   1148   61.1  0.112   1682      6  1.000  1.000  0.150  0.000  0.000  0.000  0.000   1.13  41.68   0.27      0   1682     28.5   1.41   0.00   1.00    3.93    3.93    3.85    3.69    3.85    3.17    2.15      0      0      0       0     445 16.70
 2021 210   106    89   20.0      5   0.65   2400   2117    744   1792   4517   6243   1148   64.8  0.119   1725      6  1.000  1.000  0.146  0.000  0.000  0.000  0.000   1.13  43.13   0.28      0   1725     27.1   1.41   0.00   1.00    3.93    3.93    3.85    3.69    3.85    3.17    2.15      0      0      0       0     445 16.79
 2021 211   107    90   20.0      5   0.62   2400   2074    787   1783   4474   6243   1148   68.5  0.126   1768      6  1.000  1.000  0.141  0.000  0.000  0.000  0.000   1.13  44.51   0.28      0   1768     25.8   1.41   0.00   1.00    3.93    3.93    3.85    3.69    3.85    3.17    2.15      0      0      0       0     445 16.00
 2021 212   108    91   20.0      5   0.59   2400   2031    830   1774   4431   6243   1148   72.3  0.133   1811      6  1.000  1.000  0.136  0.000  0.000  0.000  0.000   1.14  45.83   0.29      0   1811     24.5   1.41   0.00   1.00    3.93    3.93    3.85    3.69    3.85    3.17    2.15      0      0      0       0     454 18.29
 2021 213   109    92   20.0      5   0.58   2400   2051    920   1775   4451   6352   1148   80.1  0.145   1901      6  0.000  0.000  0.126  0.000  0.000  0.000  0.000   1.11  48.39   0.30      0   1901     24.1   1.41   0.00   1.00    4.00    3.91    3.83    3.67    3.83    3.16    2.13      0      0      0       0     463 17.70
 2021 214   110    93   20.0      5   0.57   2400   2061   1009   1772   4462   6452   1148   87.9  0.156   1990      6  0.000  0.000  0.126  0.000  0.000  0.000  0.000   1.08  50.71   0.31      0   1990     23.7   1.41   0.00   1.00    4.00    3.89    3.81    3.65    3.81    3.14    2.12      0      0      0       0     472 16.60
 2021 215   111    94   20.0      5   0.54   2400   2026   1053   1763   4427   6461   1148   91.7  0.163   2034      6  0.935  0.957  0.133  0.000  0.000  0.000  0.000   1.07  51.76   0.31      0   2034     22.6   1.41   0.00   1.00    4.00    3.89    3.81    3.65    3.81    3.14    2.12      0      0      0       0     481 16.40
 2021 216   112    95   20.0      5   0.52   2400   1990   1095   1754   4390   6467   1148   95.4  0.169   2076      6  0.953  0.969  0.135  0.000  0.000  0.000  0.000   1.07  52.75   0.32      0   2076     21.5   1.41   0.00   1.00    4.00    3.89    3.81    3.65    3.81    3.14    2.12      0      0      0       0     481 14.30
 2021 217   113    96   20.0      5   0.49   2400   1947   1138   1745   4347   6467   1148   99.1  0.176   2119      6  1.000  1.000  0.131  0.000  0.000  0.000  0.000   1.06  53.70   0.33      0   2119     20.4   1.41   0.00   1.00    4.00    3.89    3.81    3.65    3.81    3.14    2.12      0      0      0       0     481 16.80
 2021 218   114    97   20.0      5   0.47   2400   1904   1181   1737   4305   6467   1148  102.8  0.183   2162      6  1.000  1.000  0.127  0.000  0.000  0.000  0.000   1.06  54.62   0.33      0   2162     19.4   1.41   0.00   1.00    4.00    3.89    3.81    3.65    3.81    3.14    2.12      0      0      0       0     490 16.20
 2021 219   115    98   20.0      5   0.44   2400   1866   1223   1728   4267   6471   1148  106.5  0.189   2204      6  0.959  0.973  0.123  0.000  0.000  0.000  0.000   1.05  55.49   0.34      0   2204     18.5   1.41   0.00   1.00    4.00    3.89    3.81    3.65    3.81    3.14    2.12      0      0      0       0     490 15.60
 2021 220   116    99   20.0      5   0.42   2400   1824   1265   1719   4224   6471   1148  110.2  0.196   2246      6  1.000  1.000  0.120  0.000  0.000  0.000  0.000   1.05  56.33   0.35      0   2246     17.6   1.41   0.00   1.00    4.00    3.89    3.81    3.65    3.81    3.14    2.12      0      0      0       0     498 13.90
 2021 221   117   100   20.0      5   0.40   2400   1788   1311   1711   4189   6481   1148  114.2  0.202   2293      6  0.880  0.921  0.116  0.000  0.000  0.000  0.000   1.04  57.21   0.35      0   2293     16.8   1.41   0.00   1.00    4.00    3.89    3.81    3.65    3.81    3.14    2.12      0      0      0       0     498 14.40
 2021 222   118   101   20.0      5   0.38   2400   1742   1358   1702   4143   6481   1148  118.2  0.209   2339      6  1.000  1.000  0.112  0.000  0.000  0.000  0.000   1.04  58.05   0.36      0   2339     16.0   1.41   0.00   1.00    4.00    3.89    3.81    3.65    3.81    3.14    2.12      0      0      0       0     498 16.30
 2021 223   119   102   20.0      5   0.36   2400   1696   1404   1694   4096   6481   1148  122.3  0.217   2385      6  1.000  1.000  0.110  0.000  0.000  0.000  0.000   1.03  58.86   0.37      0   2385     15.2   1.41   0.00   1.00    4.00    3.89    3.81    3.65    3.81    3.14    2.12      0      0      0       0     498 15.80
 2021 224   120   103   20.0      5   0.35   2400   1650   1450   1685   4050   6481   1148  126.3  0.224   2431      6  1.000  1.000  0.105  0.000  0.000  0.000  0.000   1.03  59.65   0.38      0   2431     14.4   1.41   0.00   1.00    4.00    3.89    3.81    3.65    3.81    3.14    2.12      0      0      0       0     498 16.70
 2021 225   121   104   20.0      5   0.33   2400   1604   1496   1677   4004   6481   1148  130.3  0.231   2477      6  1.000  1.000  0.101  0.000  0.000  0.000  0.000   1.02  60.40   0.38      0   2477     13.7   1.41   0.00   1.00    4.00    3.89    3.81    3.65    3.81    3.14    2.12      0      0      0       0     498 17.10
 2021 226   122   105   20.0      5   0.31   2400   1569   1542   1668   3970   6493   1148  134.3  0.238   2524      6  1.000  1.000  0.097  0.000  0.000  0.000  0.000   1.01  61.12   0.39      0   2524     13.0   1.41   0.00   1.00    4.00    3.89    3.81    3.65    3.81    3.14    2.12      0      0      0       0     498 16.20
 2021 227   123   106   20.0      5   0.30   2400   1535   1589   1660   3936   6505   1148  138.4  0.244   2570      6  1.000  1.000  0.093  0.000  0.000  0.000  0.000   1.00  61.82   0.40      0   2570     12.3   1.41   0.00   1.00    4.00    3.89    3.81    3.65    3.81    3.14    2.12      0      0      0       0     498 16.10
 2021 228   124   107   20.0      5   0.28   2400   1501   1635   1652   3901   6517   1148  142.4  0.251   2616      6  1.000  1.000  0.091  0.000  0.000  0.000  0.000   1.00  62.50   0.40      0   2616     11.7   1.41   0.00   1.00    4.00    3.89    3.81    3.65    3.81    3.14    2.12      0      0      0       0     507 17.20
 2021 229   125   108   20.0      5   0.28   2400   1501   1635   1652   3901   6517   1148  142.4  0.251   2616      6  0.000  0.000  0.000  0.000  0.000  0.000  0.000   1.00  62.50   0.40      0   2616     11.7   1.41   0.00   1.00    4.00    3.89    3.81    3.65    3.81    3.14    2.12      0      0      0       0     507 16.50
 2021 230   126   109   20.0      5   0.28   2400   1501   1635   1652   3901   6517   1148  142.4  0.251   2616      6  0.000  0.000  0.000  0.000  0.000  0.000  0.000   1.00  62.50   0.40      0   2616     11.7   1.41   0.00   1.00    4.00    3.89    3.81    3.65    3.81    3.14    2.12      0      0      0       0     507  0.00

*DSSAT Cropping System Model Ver. 4.7.5.036 -develop  MAY 01, 2021 15:30:54

*RUN   2        : USAID                     MZCER046 USAID001    2
 MODEL          : MZCER046 - Maize
 EXPERIMENT     : USAID001 MZ limatic forecasts
 DATA PATH      :
 TREATMENT  2   : USAID                     MZCER046
  
!                                                                                                                                                                                                                                      Root Dens. (cm/cm3) by soil depth (cm):
!                                                                                                                                                                                                                                      0-5    5-15   15-30   30-45   45-60   60-80  80-100
@YEAR DOY   DAS   DAP   L#SD   GSTD   LAID   LWAD   SWAD   GWAD   RWAD   VWAD   CWAD   G#AD   GWGD   HIAD   PWAD   P#AD   WSPD   WSGD   NSTD   EWSD  PST1A  PST2A   KSTD   LN%D   SH%D   HIPD   PWDD   PWTD     SLAD   CHTD   CWID   RDPD    RL1D    RL2D    RL3D    RL4D    RL5D    RL6D    RL7D   CDAD   LDAD   SDAD   SNW0C   SNW1C  DTTD
 2021 121    17     0    0.0      0   0.00      0      0      0      0      0      0      0    0.0  0.000      0      0  0.000  0.000  0.000  0.000  0.000  0.000  0.000   0.00   0.00   0.00      0      0      0.0   0.00   0.00   0.01    0.00    0.00    0.00    0.00    0.00    0.00    0.00      0      0      0       0       0 17.48
 2021 122    18     1    0.0      0   0.00      0      0      0      0      0      0      0    0.0  0.000      0      0  0.000  0.000  0.000  0.000  0.000  0.000  0.000   0.00   0.00   0.00      0      0      0.0   0.00   0.00   0.04    0.00    0.00    0.00    0.00    0.00    0.00    0.00      0      0      0       0       0 18.86
 2021 123    19     2    0.0      0   0.00      0      0      0      0      0      0      0    0.0  0.000      0      0  0.000  0.000  0.000  0.000  0.000  0.000  0.000   0.00   0.00   0.00      0      0      0.0   0.00   0.00   0.07    0.00    0.00    0.00    0.00    0.00    0.00    0.00      0      0      0       0       0 18.59
 2021 124    20     3    0.0      0   0.00      0      0      0      0      0      0      0    0.0  0.000      0      0  0.000  0.000  0.000  0.000  0.000  0.000  0.000   0.00   0.00   0.00      0      0      0.0   0.00   0.00   0.10    0.00    0.00    0.00    0.00    0.00    0.00    0.00      0      0      0       0       0 19.25
 2021 125    21     4    2.0      1   0.00     12     12      0     12     25     25      0    0.0  0.000      0      0  0.000  0.000  0.012  0.000  0.000  0.000  0.000   4.40   0.00   0.00      0      0     27.8   0.00   0.00   0.11    0.25    0.06    0.00    0.00    0.00    0.00    0.00      0      0      0       0       0 18.44
 2021 126    22     5    2.0      1   0.01     12     12      0     13     25     25      0    0.0  0.000      0      0  0.000  0.000  0.012  0.000  0.000  0.000  0.000   4.40   0.00   0.00      0      0     53.5   0.00   0.00   0.13    0.25    0.06    0.00    0.00    0.00    0.00    0.00      0      0      0       0       0 17.62
 2021 127    23     6    3.0      1   0.01     12     12      0     14     25     25      0    0.0  0.000      0      0  0.000  0.000  0.005  0.000  0.000  0.000  0.000   4.40   0.00   0.00      0      0     85.7   0.01   0.00   0.15    0.27    0.07    0.00    0.00    0.00    0.00    0.00      0      0      0       0       0 19.21
 2021 128    24     7    3.0      1   0.01     12     12      0     15     25     25      0    0.0  0.000      0      0  0.000  0.000  0.000  0.000  0.000  0.000  0.000   4.40   0.00   0.00      0      0    114.1   0.01   0.00   0.16    0.29    0.08    0.00    0.00    0.00    0.00    0.00      0      0      0       0       0 15.68
 2021 129    25     8    3.0      1   0.02     12     12      0     17     25     25      0    0.0  0.000      0      0  0.000  0.000  0.000  0.000  0.000  0.000  0.000   4.40   0.00   0.00      0      0    151.9   0.01   0.00   0.18    0.32    0.10    0.00    0.00    0.00    0.00    0.00      0      0      0       0       0 18.94
 2021 130    26     9    4.0      1   0.04     12     12      0     19     25     25      0    0.0  0.000      0      0  0.000  0.000  0.000  0.000  0.000  0.000  0.000   4.40   0.00   0.00      0      0    294.2   0.02   0.00   0.19    0.36    0.12    0.01    0.00    0.00    0.00    0.00      0      0      0       0       0 19.81
 2021 131    27    10    4.0      1   0.06     17     12      0     21     30     30      0    0.0  0.000      0      0  0.000  0.000  0.000  0.000  0.000  0.000  0.000   3.66   0.00   0.00      0      0    320.0   0.03   0.00   0.21    0.39    0.14    0.01    0.00    0.00    0.00    0.00      0      0      0       0       0 19.22
 2021 132    28    11    5.0      1   0.07     25     12      0     23     37     37      0    0.0  0.000      0      0  0.000  0.000  0.000  0.000  0.000  0.000  0.000   3.35   0.00   0.00      0      0    298.1   0.04   0.00   0.22    0.41    0.15    0.01    0.00    0.00    0.00    0.00      0      0      0       0       0 15.72
 2021 133    29    12    5.0      1   0.10     35     12      0     28     47     47      0    0.0  0.000      0      0  0.000  0.000  0.000  0.000  0.000  0.000  0.000   3.22   0.00   0.00      0      0    277.5   0.05   0.00   0.24    0.46    0.20    0.03    0.00    0.00    0.00    0.00      0      0      0       0       0 18.50
 2021 134    30    13    6.0      1   0.12     46     12      0     33     59     59      0    0.0  0.000      0      0  0.000  0.000  0.000  0.000  0.000  0.000  0.000   3.28   0.00   0.00      0      0    261.9   0.07   0.00   0.25    0.51    0.24    0.05    0.00    0.00    0.00    0.00      0      0      0       0       0 17.33
 2021 135    31    14    6.0      1   0.15     60     12      0     43     72     72      0    0.0  0.000      0      0  0.000  0.000  0.000  0.000  0.000  0.000  0.000   3.29   0.00   0.00      0      0    248.9   0.08   0.00   0.27    0.61    0.31    0.10    0.00    0.00    0.00    0.00      0      0      0       0       1 17.19
 2021 136    32    15    6.0      1   0.18     75     12      0     51     87     87      0    0.0  0.000      0      0  0.000  0.000  0.000  0.000  0.000  0.000  0.000   3.27   0.00   0.00      0      0    237.5   0.10   0.00   0.28    0.70    0.37    0.14    0.00    0.00    0.00    0.00      0      0      0       0       1 17.20
 2021 137    33    16    7.0      1   0.21     94     12      0     61    106    106      0    0.0  0.000      0      0  0.000  0.000  0.000  0.000  0.000  0.000  0.000   3.22   0.00   0.00      0      0    226.7   0.11   0.00   0.30    0.81    0.44    0.19    0.00    0.00    0.00    0.00      0      0      0       0       1 18.15
 2021 138    34    17    7.0      2   0.26    112     12      0     79    124    124      0    0.0  0.000      0      0  0.000  0.000  0.000  0.000  0.000  0.000  0.000   3.31   0.00   0.00      0      0    233.5   0.14   0.00   0.33    0.98    0.55    0.29    0.00    0.00    0.00    0.00      0      0      0       0       1 19.45
 2021 139    35    18    7.0      2   0.31    141     12      0     98    154    154      0    0.0  0.000      0      0  0.000  0.000  0.004  0.000  0.000  0.000  0.000   3.14   0.00   0.00      0      0    222.3   0.17   0.00   0.36    1.13    0.67    0.39    0.02    0.00    0.00    0.00      0      0      0       0       2 19.76
 2021 140    36    19    8.0      2   0.36    168     12      0    111    181    181      0    0.0  0.000      0      0  0.000  0.000  0.000  0.000  0.000  0.000  0.000   3.27   0.00   0.00      0      0    214.3   0.19   0.00   0.38    1.22    0.75    0.45    0.04    0.00    0.00    0.00      0      0      0       0       2 15.75
 2021 141    37    20    8.0      2   0.42    203     12      0    137    215    215      0    0.0  0.000      0      0  0.000  0.000  0.000  0.000  0.000  0.000  0.000   3.19   0.00   0.00      0      0    206.2   0.23   0.00   0.40    1.42    0.90    0.57    0.09    0.00    0.00    0.00      0      0      0       0       3 17.72
 2021 142    38    21    9.0      2   0.48    243     12      0    170    256    256      0    0.0  0.000      0      0  0.000  0.000  0.000  0.000  0.000  0.000  0.000   3.79   0.00   0.00      0      0    198.4   0.26   0.00   0.43    1.70    1.08    0.71    0.17    0.00    0.00    0.00      0      0      0       0       3 18.40
 2021 143    39    22    9.0      2   0.55    285     12      0    197    298    298      0    0.0  0.000      0      0  0.000  0.000  0.000  0.000  0.000  0.000  0.000   3.74   0.00   0.00      0      0    191.9   0.30   0.00   0.45    1.90    1.21    0.82    0.26    0.00    0.00    0.00      0      0      0       0       4 17.01
 2021 144    40    23    9.0      2   0.62    332     12      0    237    344    344      0    0.0  0.000      0      0  0.000  0.000  0.000  0.000  0.000  0.000  0.000   3.69   0.00   0.00      0      0    185.9   0.33   0.00   0.48    2.18    1.39    0.97    0.39    0.03    0.00    0.00      0      0      0       0       5 17.08
 2021 145    41    24   10.0      3   0.70    390     13      0    279    403    403      0    0.0  0.000      0      0  0.000  0.000  0.000  0.000  0.000  0.000  0.000   3.61   0.00   0.00      0      0    179.2   0.38   0.00   0.51    2.44    1.57    1.13    0.51    0.08    0.00    0.00      0      0      0       0       6 19.09
 2021 146    42    25   10.0      3   0.78    446     13      0    313    459    459      0    0.0  0.000      0      0  0.000  0.000  0.000  0.000  0.000  0.000  0.000   3.55   0.00   0.00      0      0    175.0   0.42   0.00   0.53    2.64    1.70    1.24    0.62    0.15    0.00    0.00      0      0      0       0       8 16.67
 2021 147    43    26   10.0      3   0.87    509     15      0    356    523    523      0    0.0  0.000      0      0  0.000  0.000  0.000  0.000  0.000  0.000  0.000   3.50   0.00   0.00      0      0    171.0   0.47   0.00   0.55    2.82    1.87    1.38    0.75    0.27    0.00    0.00      0      0      0       0       9 16.99
 2021 148    44    27   11.0      3   0.98    585     18      0    406    603    603      0    0.0  0.000      0      0  0.000  0.000  0.000  0.000  0.000  0.000  0.000   3.45   0.00   0.00      0      0    166.7   0.53   0.00   0.58    2.99    2.05    1.53    0.90    0.45    0.00    0.00      0      0      0       0      11 18.83
 2021 149    45    28   11.0      3   1.08    666     23      0    454    689    689      0    0.0  0.000      0      0  0.000  0.000  0.000  0.000  0.000  0.000  0.000   3.41   0.00   0.00      0      0    162.8   0.58   0.00   0.61    3.16    2.19    1.66    1.04    0.66    0.00    0.00      0      0      0       0      13 18.25
 2021 150    46    29   11.0      3   1.18    740     29      0    492    769    769      0    0.0  0.000      0      0  0.000  0.000  0.000  0.000  0.000  0.000  0.000   3.37   0.00   0.00      0      0    159.7   0.64   0.00   0.62    3.24    2.29    1.74    1.16    0.84    0.01    0.00      0      0      0       0      15 15.20
 2021 151    47    30   12.0      3   1.31    840     41      0    541    881    881      0    0.0  0.000      0      0  0.000  0.000  0.000  0.000  0.000  0.000  0.000   3.32   0.00   0.00      0      0    156.0   0.71   0.00   0.64    3.33    2.38    1.83    1.31    1.08    0.06    0.00      0      0      0       0      18 16.90
 2021 152    48    31   12.0      3   1.44    946     57      0    595   1003   1003      0    0.0  0.000      0      0  0.000  0.000  0.000  0.000  0.000  0.000  0.000   3.23   0.00   0.00      0      0    152.5   0.78   0.00   0.67    3.36    2.41    1.85    1.48    1.38    0.20    0.00      0      0      0       0      21 17.50
 2021 153    49    32   13.0      3   1.58   1054     78      0    649   1132   1132      0    0.0  0.000      0      0  0.000  0.000  0.000  0.000  0.000  0.000  0.000   3.11   0.00   0.00      0      0    149.4   0.85   0.00   0.69    3.41    2.45    1.89    1.56    1.61    0.43    0.00      0      0      0       0      24 17.50
 2021 154    50    33   13.0      3   1.70   1157    103      0    701   1260   1260      0    0.0  0.000      0      0  0.000  0.000  0.000  0.000  0.000  0.000  0.000   2.99   0.00   0.00      0      0    146.8   0.92   0.00   0.71    3.48    2.52    1.94    1.60    1.71    0.75    0.00      0      0      0       0      27 16.30
 2021 155    51    34   13.0      3   1.82   1257    131      0    763   1388   1388      0    0.0  0.000      0      0  0.000  0.000  0.000  0.000  0.000  0.000  0.000   2.85   0.00   0.00      0      0    144.5   0.98   0.00   0.73    3.60    2.62    2.03    1.66    1.77    1.11    0.00      0      0      0       0      30 15.40
 2021 156    52    35   13.0      3   1.94   1360    165      0    840   1525   1525      0    0.0  0.000      0      0  0.000  0.000  0.000  0.000  0.000  0.000  0.000   2.69   0.00   0.00      0      0    142.4   1.04   0.00   0.75    3.79    2.79    2.16    1.76    1.86    1.50    0.00      0      0      0       0      34 15.70
 2021 157    53    36   14.0      3   2.04   1458    203      0    922   1661   1661      0    0.0  0.000      0      0  0.000  0.000  0.022  0.000  0.000  0.000  0.000   2.54   0.00   0.00      0      0    140.1   1.10   0.00   0.77    4.00    3.01    2.35    1.89    2.00    1.77    0.00      0      0      0       0      38 15.70
 2021 158    54    37   14.0      3   2.14   1554    245      0    998   1799   1799      0    0.0  0.000      0      0  0.000  0.000  0.048  0.000  0.000  0.000  0.000   2.41   0.00   0.00      0      0    137.6   1.15   0.00   0.79    4.00    3.29    2.58    2.05    2.16    1.89    0.00      0      0      0       0      43 16.10
 2021 159    55    38   15.0      3   2.23   1653    296      0   1047   1949   1949      0    0.0  0.000      0      0  0.000  0.000  0.070  0.000  0.000  0.000  0.000   2.27   0.00   0.00      0      0    134.8   1.20   0.00   0.81    4.00    3.47    2.72    2.15    2.26    1.97    0.00      0      0      0       0      48 17.60
 2021 160    56    39   15.0      3   2.30   1742    347      0   1103   2089   2089      0    0.0  0.000      0      0  0.000  0.000  0.090  0.000  0.000  0.000  0.000   2.15   0.00   0.00      0      0    132.1   1.24   0.00   0.83    4.00    3.58    2.82    2.22    2.33    2.02    0.23      0      0      0       0      53 16.60
 2021 161    57    40   15.0      3   2.35   1822    399      0   1177   2222   2222      0    0.0  0.000      0      0  0.000  0.000  0.112  0.000  0.000  0.000  0.000   2.11   0.00   0.00      0      0    129.2   1.27   0.00   0.85    3.98    3.70    2.92    2.29    2.39    2.07    0.67      0      0      0       0      59 15.90
 2021 162    58    41   16.0      3   2.41   1906    461      0   1237   2367   2367      0    0.0  0.000      0      0  0.000  0.000  0.118  0.000  0.000  0.000  0.000   2.06   0.00   0.00      0      0    126.4   1.30   0.00   0.87    3.96    3.79    2.99    2.35    2.45    2.11    1.04      0      0      0       0      65 16.90
 2021 163    59    42   16.0      3   2.46   1988    527      0   1294   2515   2515      0    0.0  0.000      0      0  0.000  0.000  0.122  0.000  0.000  0.000  0.000   2.00   0.00   0.00      0      0    123.7   1.32   0.00   0.89    3.94    3.88    3.07    2.40    2.50    2.14    1.39      0      0      0       0      71 16.50
 2021 164    60    43   16.0      3   2.51   2074    605      0   1353   2680   2680      0    0.0  0.000      0      0  0.000  0.000  0.129  0.000  0.000  0.000  0.000   1.92   0.00   0.00      0      0    121.0   1.35   0.00   0.91    3.92    3.99    3.15    2.46    2.56    2.19    1.72      0      0      0       0      77 17.80
 2021 165    61    44   17.0      3   2.55   2158    689      0   1409   2846   2846      0    0.0  0.000      0      0  0.000  0.000  0.137  0.000  0.000  0.000  0.000   1.84   0.00   0.00      0      0    118.3   1.38   0.00   0.93    3.90    4.00    3.26    2.53    2.63    2.24    1.98      0      0      0       0      84 17.50
 2021 166    62    45   17.0      3   2.65   2298    817      0   1425   3115   3115      0    0.0  0.000      0      0  0.000  0.067  0.148  0.000  0.000  0.000  0.000   1.71   0.00   0.00      0      0    115.3   1.43   0.00   0.95    3.88    4.00    3.29    2.56    2.66    2.26    2.02      0      0      0       0      91 16.90
 2021 167    63    46   17.0      3   2.69   2391    939      0   1437   3330   3330      0    0.0  0.000      0      0  0.000  0.247  0.158  0.000  0.000  0.000  0.000   1.62   0.00   0.00      0      0    112.6   1.45   0.00   0.97    4.00    4.00    3.31    2.57    2.67    2.27    2.03      0      0      0       0      98 16.80
 2021 168    64    47   18.0      3   2.70   2458   1043      0   1466   3501   3504      0    0.0  0.000      3      0  0.131  0.421  0.180  0.000  0.000  0.000  0.000   1.56   0.00   0.00      0      3    109.8   1.45   0.00   0.99    3.98    4.00    3.40    2.63    2.73    2.31    2.07      0      0      0       0     105 16.30
 2021 169    65    48   18.0      3   2.67   2495   1110      0   1504   3606   3613      0    0.0  0.000      7      0  0.492  0.662  0.193  0.000  0.000  0.000  0.000   1.53   0.00   0.00      0      7    107.0   1.45   0.00   1.00    3.96    4.00    3.51    2.70    2.80    2.37    2.13      0      0      0       0     113 17.50
 2021 170    66    49   18.0      3   2.63   2525   1169      0   1535   3694   3706      0    0.0  0.000     12      0  0.529  0.687  0.203  0.000  0.000  0.000  0.000   1.50   0.00   0.00      0     12    104.1   1.45   0.00   1.00    3.94    4.00    3.60    2.77    2.87    2.41    2.17      0      0      0       0     120 16.90
 2021 171    67    50   19.0      3   2.58   2552   1225      0   1557   3777   3795      0    0.0  0.000     18      0  0.551  0.701  0.209  0.000  0.000  0.000  0.000   1.49   0.00   0.00      0     18    101.2   1.45   0.00   1.00    4.00    4.00    3.62    2.78    2.88    2.42    2.19      0      0      0       0     128 17.20
 2021 172    68    51   19.0      3   2.56   2593   1312      0   1621   3905   3938      0    0.0  0.000     33      0  0.000  0.000  0.203  0.000  0.000  0.000  0.000   1.46   0.00   0.01      0     33     98.7   1.45   0.00   1.00    4.00    4.00    3.78    2.90    2.99    2.51    2.27      0      0      0       0     136 17.10
 2021 173    69    52   19.0      3   2.53   2626   1386      0   1662   4013   4061      0    0.0  0.000     48      0  0.000  0.000  0.200  0.000  0.000  0.000  0.000   1.43   0.00   0.01      0     48     96.2   1.45   0.00   1.00    4.00    4.00    3.88    2.97    3.07    2.56    2.33      0      0      0       0     144 14.85
 2021 174    70    53   20.0      3   2.50   2661   1455      0   1738   4116   4192      0    0.0  0.000     76      0  0.000  0.000  0.209  0.000  0.000  0.000  0.000   1.40   0.00   0.02      0     76     93.8   1.45   0.00   1.00    4.00    4.00    4.00    3.11    3.20    2.66    2.43      0      0      0       0     152 16.35
 2021 175    71    54   20.0      3   2.46   2692   1520      0   1784   4212   4316      0    0.0  0.000    104      0  0.000  0.000  0.213  0.000  0.000  0.000  0.000   1.38   0.00   0.02      0    104     91.5   1.45   0.00   1.00    4.00    4.00    4.00    3.19    3.29    2.72    2.49      0      0      0       0     161 15.80
 2021 176    72    55   20.0      3   2.43   2722   1577      0   1828   4299   4440      0    0.0  0.000    141      0  0.000  0.000  0.215  0.000  0.000  0.000  0.000   1.37   0.00   0.03      0    141     89.3   1.45   0.00   1.00    4.00    4.00    4.00    3.27    3.36    2.78    2.55      0      0      0       0     170 16.00
 2021 177    73    56   20.0      3   2.40   2754   1613      0   1899   4367   4567      0    0.0  0.000    200      0  0.000  0.000  0.218  0.000  0.000  0.000  0.000   1.36   0.00   0.04      0    200     87.1   1.45   0.00   1.00    4.00    4.00    4.00    3.40    3.49    2.88    2.65      0      0      0       0     179 16.40
 2021 178    74    57   20.0      3   2.37   2786   1648      0   1946   4434   4697      0    0.0  0.000    263      0  0.000  0.000  0.220  0.000  0.000  0.000  0.000   1.34   0.00   0.06      0    263     85.0   1.45   0.00   1.00    4.00    4.00    4.00    3.48    3.58    2.94    2.71      0      0      0       0     188 17.00
 2021 179    75    58   20.0      3   2.33   2813   1678      0   1967   4491   4808      0    0.0  0.000    318      0  0.000  0.000  0.219  0.000  0.000  0.000  0.000   1.34   0.00   0.07      0    318     82.9   1.45   0.00   1.00    4.00    4.00    4.00    3.52    3.61    2.97    2.74      0      0      0       0     198 14.40
 2021 180    76    59   20.0      3   2.30   2843   1692      0   2000   4535   4932      0    0.0  0.000    397      0  0.000  0.000  0.217  0.000  0.000  0.000  0.000   1.33   0.00   0.08      0    397     81.0   1.45   0.00   1.00    4.00    4.00    4.00    3.58    3.67    3.01    2.79      0      0      0       0     208 16.00
 2021 181    77    60   20.0      3   2.27   2872   1694      0   2029   4566   5050      0    0.0  0.000    484      0  0.000  0.000  0.213  0.000  0.000  0.000  0.000   1.34   0.00   0.10      0    484     79.1   1.45   0.00   1.00    4.00    4.00    4.00    3.63    3.72    3.05    2.83      0      0      0       0     218 15.10
 2021 182    78    61   20.0      3   2.25   2907   1746      0   2082   4653   5189      0    0.0  0.000    536      0  0.000  0.000  0.204  0.000  0.000  0.000  0.000   1.32   0.00   0.10      0    536     77.3   1.45   0.00   1.00    4.00    4.00    4.00    3.73    3.82    3.12    2.90      0      0      0       0     228 17.60
 2021 183    79    62   20.0      4   2.19   2876   1922      0   2083   4798   5415      0    0.0  0.000    617      0  0.000  0.000  0.197  0.000  0.000  0.000  0.000   1.30   0.00   0.11      0    617     76.2   1.45   0.00   1.00    4.00    4.00    4.00    3.73    3.82    3.12    2.90      0      0      0       0     238 17.20
 2021 184    80    63   20.0      4   2.14   2844   2066      0   2082   4910   5601      0    0.0  0.000    691      0  0.000  0.000  0.196  0.000  0.000  0.000  0.000   1.28   0.00   0.12      0    691     75.2   1.45   0.00   1.00    4.00    4.00    4.00    3.73    3.82    3.12    2.90      0      0      0       0     249 14.80
 2021 185    81    64   20.0      4   2.09   2809   2217      0   2082   5026   5803      0    0.0  0.000    777      0  0.000  0.000  0.199  0.000  0.000  0.000  0.000   1.26   0.00   0.13      0    777     74.2   1.45   0.00   1.00    4.00    4.00    4.00    3.72    3.82    3.12    2.90      0      0      0       0     259 16.70
 2021 186    82    65   20.0      4   2.03   2771   2348      0   2081   5119   5975      0    0.0  0.000    857      0  0.000  0.000  0.199  0.000  0.000  0.000  0.000   1.25   0.00   0.14      0    857     73.4   1.45   0.00   1.00    4.00    4.00    4.00    3.72    3.81    3.11    2.89      0      0      0       0     270 16.00
 2021 187    83    66   20.0      4   1.98   2731   2478      0   2079   5209   6150      0    0.0  0.000    941      0  0.000  0.000  0.200  0.000  0.000  0.000  0.000   1.24   0.00   0.15      0    941     72.6   1.45   0.00   1.00    4.00    4.00    4.00    3.72    3.81    3.11    2.89      0      0      0       0     280 16.00
 2021 188    84    67   20.0      4   1.93   2689   2619      0   2079   5308   6346      0    0.0  0.000   1038      0  0.000  0.000  0.199  0.000  0.000  0.000  0.000   1.22   0.00   0.16      0   1038     71.9   1.45   0.00   1.00    4.00    4.00    4.00    3.72    3.81    3.11    2.89      0      0      0       0     291 16.00
 2021 189    85    68   20.0      4   1.89   2644   2771      0   2080   5415   6562      0    0.0  0.000   1147      0  0.180  0.454  0.199  0.000  0.000  0.000  0.000   1.20   0.00   0.17      0   1147     71.3   1.45   0.00   1.00    3.98    4.00    4.00    3.72    3.81    3.11    2.89      0      0      0       0     301 16.70
 2021 190    86    69   20.0      4   1.84   2596   2884      0   2077   5481   6674      0    0.0  0.000   1193      0  0.488  0.659  0.199  0.000  0.000  0.000  0.000   1.19   0.00   0.18      0   1193     70.8   1.45   0.00   1.00    3.96    4.00    4.00    3.72    3.81    3.10    2.89      0      0      0       0     311 18.55
 2021 191    87    70   20.0      4   1.78   2546   2983      0   2072   5529   6752      0    0.0  0.000   1224      0  0.581  0.721  0.200  0.000  0.000  0.000  0.000   1.19   0.00   0.18      0   1224     70.1   1.45   0.00   1.00    3.94    4.00    3.99    3.71    3.80    3.09    2.88      0      0      0       0     322 16.90
 2021 192    88    71   20.0      4   1.73   2493   3066      0   2066   5560   6808      0    0.0  0.000   1248      0  0.602  0.735  0.199  0.000  0.000  0.000  0.000   1.18   0.00   0.18      0   1248     69.4   1.45   0.00   1.00    3.92    3.99    3.99    3.70    3.79    3.09    2.88      0      0      0       0     332 16.80
 2021 193    89    72   20.0      4   1.69   2439   3136      0   2061   5574   6854      0    0.0  0.000   1280      0  0.453  0.636  0.197  0.000  0.000  0.000  0.000   1.18   0.00   0.19      0   1280     69.2   1.45   0.00   1.00    3.90    3.99    3.98    3.69    3.77    3.08    2.87      0      0      0       0     342 13.90
 2021 194    90    73   20.0      5   1.63   2439   3112    107   2050   5550   6937   1579    6.7  0.015   1387      6  0.697  0.799  0.195  0.000  0.000  0.000  0.000   1.17   7.68   0.20      0   1387     66.8   1.45   0.00   1.00    3.90    3.99    3.98    3.69    3.77    3.08    2.87      0      0      0       0     353 15.30
 2021 195    91    74   20.0      5   1.59   2439   3136    230   2063   5574   7084   1579   14.5  0.032   1510      6  0.000  0.259  0.198  0.000  0.000  0.000  0.000   1.14  15.21   0.21      0   1510     65.2   1.45   0.00   1.00    3.88    4.00    4.00    3.73    3.75    3.10    2.89      0      0      0       0     363 16.40
 2021 196    92    75   20.0      5   1.53   2439   3131    302   2053   5569   7151   1579   19.1  0.042   1582      6  0.758  0.839  0.200  0.000  0.000  0.000  0.000   1.13  19.06   0.22      0   1582     62.7   1.45   0.00   1.00    3.88    4.00    4.00    3.73    3.75    3.10    2.89      0      0      0       0     373 16.10
 2021 197    93    76   20.0      5   1.47   2439   3117    368   2043   5556   7205   1579   23.3  0.051   1649      6  0.831  0.888  0.205  0.000  0.000  0.000  0.000   1.12  22.35   0.23      0   1649     60.1   1.45   0.00   1.00    3.88    4.00    4.00    3.73    3.75    3.10    2.89      0      0      0       0     384 15.70
 2021 198    94    77   20.0      5   1.40   2439   3091    434   2032   5530   7244   1579   27.5  0.060   1714      6  0.853  0.903  0.206  0.000  0.000  0.000  0.000   1.11  25.31   0.24      0   1714     57.5   1.45   0.00   1.00    3.88    4.00    4.00    3.73    3.75    3.10    2.89      0      0      0       0     394 15.30
 2021 199    95    78   20.0      5   1.34   2439   3061    497   2022   5500   7277   1579   31.5  0.068   1777      6  0.881  0.921  0.203  0.000  0.000  0.000  0.000   1.10  27.98   0.24      0   1777     55.0   1.45   0.00   1.00    3.88    4.00    4.00    3.73    3.75    3.10    2.89      0      0      0       0     404 18.57
 2021 200    96    79   20.0      5   1.28   2439   3014    556   2012   5452   7288   1579   35.2  0.076   1836      6  0.957  0.972  0.199  0.000  0.000  0.000  0.000   1.09  30.27   0.25      0   1836     52.4   1.45   0.00   1.00    3.88    4.00    4.00    3.73    3.75    3.10    2.89      0      0      0       0     414 17.90
 2021 201    97    80   20.0      5   1.22   2439   2966    614   2002   5405   7298   1579   38.9  0.084   1894      6  0.960  0.974  0.198  0.000  0.000  0.000  0.000   1.09  32.41   0.26      0   1894     49.8   1.45   0.00   1.00    3.88    4.00    4.00    3.73    3.75    3.10    2.89      0      0      0       0     414 16.50
 2021 202    98    81   20.0      5   1.15   2439   2908    672   1992   5346   7298   1579   42.5  0.092   1952      6  1.000  1.000  0.194  0.000  0.000  0.000  0.000   1.10  34.42   0.27      0   1952     47.4   1.45   0.00   1.00    3.88    4.00    4.00    3.73    3.75    3.10    2.89      0      0      0       0     424 17.40
 2021 203    99    82   20.0      5   1.13   2439   2939    795   1998   5377   7452   1579   50.3  0.107   2075      6  0.000  0.000  0.189  0.000  0.000  0.000  0.000   1.07  38.31   0.28      0   2075     46.2   1.45   0.00   1.00    4.00    3.98    3.98    3.71    3.73    3.09    2.88      0      0      0       0     434 16.10
 2021 204   100    83   20.0      5   1.08   2439   2921    866   1988   5360   7506   1579   54.8  0.115   2146      6  0.777  0.852  0.189  0.000  0.000  0.000  0.000   1.05  40.34   0.29      0   2146     44.4   1.45   0.00   1.00    4.00    3.98    3.98    3.71    3.73    3.09    2.88      0      0      0       0     444 17.10
 2021 205   101    84   20.0      5   1.03   2439   2870    923   1978   5309   7512   1579   58.5  0.123   2203      6  0.969  0.980  0.193  0.000  0.000  0.000  0.000   1.05  41.90   0.29      0   2203     42.3   1.45   0.00   1.00    4.00    3.98    3.98    3.71    3.73    3.09    2.88      0      0      0       0     444 14.70
 2021 206   102    85   20.0      5   0.98   2439   2813    981   1968   5251   7512   1579   62.1  0.131   2261      6  1.000  1.000  0.192  0.000  0.000  0.000  0.000   1.05  43.38   0.30      0   2261     40.2   1.45   0.00   1.00    4.00    3.98    3.98    3.71    3.73    3.09    2.88      0      0      0       0     444 16.20
 2021 207   103    86   20.0      5   0.93   2439   2755   1038   1958   5194   7512   1579   65.7  0.138   2318      6  1.000  1.000  0.189  0.000  0.000  0.000  0.000   1.05  44.78   0.31      0   2318     38.2   1.45   0.00   1.00    4.00    3.98    3.98    3.71    3.73    3.09    2.88      0      0      0       0     444 15.70
 2021 208   104    87   20.0      5   0.88   2439   2698   1096   1948   5136   7512   1579   69.4  0.146   2376      6  1.000  1.000  0.185  0.000  0.000  0.000  0.000   1.04  46.12   0.32      0   2376     36.3   1.45   0.00   1.00    4.00    3.98    3.98    3.71    3.73    3.09    2.88      0      0      0       0     444 15.70
 2021 209   105    88   20.0      5   0.84   2439   2640   1153   1938   5079   7512   1579   73.0  0.154   2433      6  1.000  1.000  0.182  0.000  0.000  0.000  0.000   1.04  47.39   0.32      0   2433     34.4   1.45   0.00   1.00    4.00    3.98    3.98    3.71    3.73    3.09    2.88      0      0      0       0     444 15.20
 2021 210   106    89   20.0      5   0.80   2439   2583   1211   1929   5021   7512   1579   76.7  0.161   2491      6  1.000  1.000  0.179  0.000  0.000  0.000  0.000   1.04  48.61   0.33      0   2491     32.7   1.45   0.00   1.00    4.00    3.98    3.98    3.71    3.73    3.09    2.88      0      0      0       0     444 14.40
 2021 211   107    90   20.0      5   0.76   2439   2525   1268   1919   4964   7512   1579   80.3  0.169   2548      6  1.000  1.000  0.175  0.000  0.000  0.000  0.000   1.04  49.77   0.34      0   2548     31.1   1.45   0.00   1.00    4.00    3.98    3.98    3.71    3.73    3.09    2.88      0      0      0       0     444 17.00
 2021 212   108    91   20.0      5   0.72   2439   2468   1326   1909   4906   7512   1579   84.0  0.176   2606      6  1.000  1.000  0.171  0.000  0.000  0.000  0.000   1.03  50.88   0.35      0   2606     29.5   1.45   0.00   1.00    4.00    3.98    3.98    3.71    3.73    3.09    2.88      0      0      0       0     444 16.40
 2021 213   109    92   20.0      5   0.72   2439   2468   1326   1909   4906   7512   1579   84.0  0.176   2606      6  1.000  1.000  0.000  0.000  0.000  0.000  0.000   1.03  50.88   0.35      0   2606     29.5   1.45   0.00   1.00    4.00    3.98    3.98    3.71    3.73    3.09    2.88      0      0      0       0     444 16.70
 2021 214   110    93   20.0      5   0.72   2439   2468   1326   1909   4906   7512   1579   84.0  0.176   2606      6  0.000  1.000  0.000  0.000  0.000  0.000  0.000   1.03  50.88   0.35      0   2606     29.5   1.45   0.00   1.00    4.00    3.98    3.98    3.71    3.73    3.09    2.88      0      0      0       0     444  0.00

*DSSAT Cropping System Model Ver. 4.7.5.036 -develop  MAY 01, 2021 15:30:55

*RUN   3        : USAID                     MZCER046 USAID001    3
 MODEL          : MZCER046 - Maize
 EXPERIMENT     : USAID001 MZ limatic forecasts
 DATA PATH      :
 TREATMENT  3   : USAID                     MZCER046
  
!                                                                                                                                                                                                                                      Root Dens. (cm/cm3) by soil depth (cm):
!                                                                                                                                                                                                                                      0-5    5-15   15-30   30-45   45-60   60-80  80-100
@YEAR DOY   DAS   DAP   L#SD   GSTD   LAID   LWAD   SWAD   GWAD   RWAD   VWAD   CWAD   G#AD   GWGD   HIAD   PWAD   P#AD   WSPD   WSGD   NSTD   EWSD  PST1A  PST2A   KSTD   LN%D   SH%D   HIPD   PWDD   PWTD     SLAD   CHTD   CWID   RDPD    RL1D    RL2D    RL3D    RL4D    RL5D    RL6D    RL7D   CDAD   LDAD   SDAD   SNW0C   SNW1C  DTTD
 2021 121    17     0    0.0      0   0.00      0      0      0      0      0      0      0    0.0  0.000      0      0  0.000  0.000  0.000  0.000  0.000  0.000  0.000   0.00   0.00   0.00      0      0      0.0   0.00   0.00   0.01    0.00    0.00    0.00    0.00    0.00    0.00    0.00      0      0      0       0       0 16.74
 2021 122    18     1    0.0      0   0.00      0      0      0      0      0      0      0    0.0  0.000      0      0  0.000  0.000  0.000  0.000  0.000  0.000  0.000   0.00   0.00   0.00      0      0      0.0   0.00   0.00   0.04    0.00    0.00    0.00    0.00    0.00    0.00    0.00      0      0      0       0       0 18.06
 2021 123    19     2    0.0      0   0.00      0      0      0      0      0      0      0    0.0  0.000      0      0  0.000  0.000  0.000  0.000  0.000  0.000  0.000   0.00   0.00   0.00      0      0      0.0   0.00   0.00   0.06    0.00    0.00    0.00    0.00    0.00    0.00    0.00      0      0      0       0       0 17.27
 2021 124    20     3    0.0      0   0.00      0      0      0      0      0      0      0    0.0  0.000      0      0  0.000  0.000  0.000  0.000  0.000  0.000  0.000   0.00   0.00   0.00      0      0      0.0   0.00   0.00   0.09    0.00    0.00    0.00    0.00    0.00    0.00    0.00      0      0      0       0       0 16.16
 2021 125    21     4    2.0      1   0.00     12     12      0     12     25     25      0    0.0  0.000      0      0  0.000  0.000  0.012  0.000  0.000  0.000  0.000   4.40   0.00   0.00      0      0     27.1   0.00   0.00   0.10    0.25    0.05    0.00    0.00    0.00    0.00    0.00      0      0      0       0       0 18.02
 2021 126    22     5    2.0      1   0.01     12     12      0     13     25     25      0    0.0  0.000      0      0  0.000  0.000  0.014  0.000  0.000  0.000  0.000   4.40   0.00   0.00      0      0     52.1   0.00   0.00   0.12    0.25    0.05    0.00    0.00    0.00    0.00    0.00      0      0      0       0       0 17.25
 2021 127    23     6    3.0      1   0.01     12     12      0     13     25     25      0    0.0  0.000      0      0  0.000  0.000  0.007  0.000  0.000  0.000  0.000   4.40   0.00   0.00      0      0     81.3   0.01   0.00   0.14    0.26    0.06    0.00    0.00    0.00    0.00    0.00      0      0      0       0       0 17.77
 2021 128    24     7    3.0      1   0.01     12     12      0     15     25     25      0    0.0  0.000      0      0  0.000  0.000  0.000  0.000  0.000  0.000  0.000   4.40   0.00   0.00      0      0    116.4   0.01   0.00   0.15    0.29    0.07    0.00    0.00    0.00    0.00    0.00      0      0      0       0       0 19.08
 2021 129    25     8    3.0      1   0.02     12     12      0     17     25     25      0    0.0  0.000      0      0  0.000  0.000  0.000  0.000  0.000  0.000  0.000   4.40   0.00   0.00      0      0    150.0   0.01   0.00   0.17    0.32    0.09    0.00    0.00    0.00    0.00    0.00      0      0      0       0       0 16.96
 2021 130    26     9    4.0      1   0.04     12     12      0     19     25     25      0    0.0  0.000      0      0  0.000  0.000  0.000  0.000  0.000  0.000  0.000   4.40   0.00   0.00      0      0    284.0   0.02   0.00   0.18    0.37    0.11    0.00    0.00    0.00    0.00    0.00      0      0      0       0       0 18.98
 2021 131    27    10    4.0      1   0.05     16     12      0     22     29     29      0    0.0  0.000      0      0  0.000  0.000  0.000  0.000  0.000  0.000  0.000   3.78   0.00   0.00      0      0    324.0   0.03   0.00   0.20    0.41    0.13    0.01    0.00    0.00    0.00    0.00      0      0      0       0       0 18.30
 2021 132    28    11    5.0      1   0.07     24     12      0     25     36     36      0    0.0  0.000      0      0  0.000  0.000  0.000  0.000  0.000  0.000  0.000   3.33   0.00   0.00      0      0    300.2   0.04   0.00   0.21    0.45    0.16    0.02    0.00    0.00    0.00    0.00      0      0      0       0       0 16.47
 2021 133    29    12    5.0      1   0.09     33     12      0     29     45     45      0    0.0  0.000      0      0  0.000  0.000  0.000  0.000  0.000  0.000  0.000   3.31   0.00   0.00      0      0    281.1   0.05   0.00   0.23    0.51    0.19    0.03    0.00    0.00    0.00    0.00      0      0      0       0       0 16.83
 2021 134    30    13    5.0      1   0.12     44     12      0     35     57     57      0    0.0  0.000      0      0  0.000  0.000  0.000  0.000  0.000  0.000  0.000   3.28   0.00   0.00      0      0    264.7   0.06   0.00   0.24    0.59    0.23    0.05    0.00    0.00    0.00    0.00      0      0      0       0       0 17.51
 2021 135    31    14    6.0      1   0.15     58     12      0     44     70     70      0    0.0  0.000      0      0  0.000  0.000  0.000  0.000  0.000  0.000  0.000   3.25   0.00   0.00      0      0    250.4   0.08   0.00   0.26    0.70    0.29    0.09    0.00    0.00    0.00    0.00      0      0      0       0       1 18.41
 2021 136    32    15    6.0      1   0.18     74     12      0     55     86     86      0    0.0  0.000      0      0  0.000  0.000  0.000  0.000  0.000  0.000  0.000   3.26   0.00   0.00      0      0    238.3   0.09   0.00   0.27    0.83    0.36    0.14    0.00    0.00    0.00    0.00      0      0      0       0       1 17.86
 2021 137    33    16    7.0      1   0.21     94     12      0     68    106    106      0    0.0  0.000      0      0  0.000  0.000  0.000  0.000  0.000  0.000  0.000   3.19   0.00   0.00      0      0    226.8   0.11   0.00   0.29    0.98    0.45    0.21    0.00    0.00    0.00    0.00      0      0      0       0       1 19.34
 2021 138    34    17    7.0      2   0.26    110     12      0     88    122    122      0    0.0  0.000      0      0  0.000  0.000  0.000  0.000  0.000  0.000  0.000   3.36   0.00   0.00      0      0    234.2   0.14   0.00   0.32    1.18    0.56    0.32    0.00    0.00    0.00    0.00      0      0      0       0       1 18.46
 2021 139    35    18    7.0      2   0.30    131     12      0    101    143    143      0    0.0  0.000      0      0  0.000  0.000  0.002  0.000  0.000  0.000  0.000   3.33   0.00   0.00      0      0    226.1   0.16   0.00   0.34    1.31    0.64    0.39    0.01    0.00    0.00    0.00      0      0      0       0       2 14.23
 2021 140    36    19    8.0      2   0.34    158     12      0    120    170    170      0    0.0  0.000      0      0  0.000  0.000  0.000  0.000  0.000  0.000  0.000   3.23   0.00   0.00      0      0    217.4   0.18   0.00   0.36    1.49    0.74    0.49    0.04    0.00    0.00    0.00      0      0      0       0       2 16.48
 2021 141    37    20    8.0      2   0.40    191     12      0    141    203    203      0    0.0  0.000      0      0  0.000  0.000  0.000  0.000  0.000  0.000  0.000   3.17   0.00   0.00      0      0    208.9   0.21   0.00   0.39    1.57    0.86    0.60    0.08    0.00    0.00    0.00      0      0      0       0       3 17.82
 2021 142    38    21    8.0      2   0.46    230     12      0    163    243    243      0    0.0  0.000      0      0  0.000  0.000  0.000  0.000  0.000  0.000  0.000   3.78   0.00   0.00      0      0    200.8   0.25   0.00   0.41    1.57    0.99    0.73    0.15    0.00    0.00    0.00      0      0      0       0       4 18.63
 2021 143    39    22    9.0      2   0.53    275     12      0    201    287    287      0    0.0  0.000      0      0  0.000  0.000  0.000  0.000  0.000  0.000  0.000   3.74   0.00   0.00      0      0    193.5   0.29   0.00   0.44    1.97    1.12    0.88    0.27    0.00    0.00    0.00      0      0      0       0       4 18.60
 2021 144    40    23    9.0      2   0.61    326     12      0    233    338    338      0    0.0  0.000      0      0  0.000  0.000  0.000  0.000  0.000  0.000  0.000   3.69   0.00   0.00      0      0    186.7   0.33   0.00   0.47    2.29    1.22    1.00    0.40    0.00    0.00    0.00      0      0      0       0       5 18.96
 2021 145    41    24   10.0      3   0.69    383     13      0    273    395    395      0    0.0  0.000      0      0  0.000  0.000  0.000  0.000  0.000  0.000  0.000   3.61   0.00   0.00      0      0    180.0   0.37   0.00   0.49    2.66    1.33    1.13    0.54    0.05    0.00    0.00      0      0      0       0       7 18.93
[...]
 2021 164    60    43   16.0      3   2.46   2023    531      0   1312   2554   2554      0    0.0  0.000      0      0  0.000  0.000  0.124  0.000  0.000  0.000  0.000   1.98   0.00   0.00      0      0    121.7   1.33   0.00   0.90    4.00    3.51    3.11    2.40    2.53    2.10    1.52      0      0      0       0      72 17.10
 2021 165    61    44   16.0      3   2.50   2094    596      0   1374   2690   2690      0    0.0  0.000      0      0  0.000  0.000  0.130  0.000  0.000  0.000  0.000   1.94   0.00   0.00      0      0    119.2   1.35   0.00   0.92    4.00    3.61    3.19    2.46    2.59    2.14    1.86      0      0      0       0      79 14.70
 2021 166    62    45   17.0      3   2.70   2337    634      0   1383   2972   2972      0    0.0  0.000      0      0  0.000  0.000  0.136  0.000  0.000  0.000  0.000   1.81   0.00   0.00      0      0    115.7   1.46   0.00   0.94    4.00    3.62    3.20    2.47    2.59    2.14    1.91      0      0      0       0      86 18.20
 2021 167    63    46   17.0      3   2.79   2474    767      0   1409   3241   3241      0    0.0  0.000      0      0  0.000  0.000  0.140  0.000  0.000  0.000  0.000   1.70   0.00   0.00      0      0    113.0   1.51   0.00   0.96    4.00    3.69    3.26    2.51    2.63    2.17    1.99      0      0      0       0      92 17.00
 2021 168    64    47   17.0      3   2.83   2561    885      0   1445   3445   3445      0    0.0  0.000      0      0  0.000  0.000  0.162  0.000  0.000  0.000  0.000   1.63   0.00   0.00      0      0    110.3   1.52   0.00   0.98    4.00    3.81    3.35    2.57    2.69    2.22    2.03      0      0      0       0     100 16.40
 2021 169    65    48   18.0      3   2.83   2626    988      0   1470   3614   3617      0    0.0  0.000      3      0  0.000  0.000  0.179  0.000  0.000  0.000  0.000   1.59   0.00   0.00      0      3    107.6   1.52   0.00   1.00    4.00    3.89    3.41    2.62    2.74    2.25    2.07      0      0      0       0     107 16.05
 2021 170    66    49   18.0      3   2.81   2681   1085      0   1514   3765   3774      0    0.0  0.000      8      0  0.000  0.000  0.189  0.000  0.000  0.000  0.000   1.55   0.00   0.00      0      8    105.0   1.52   0.00   1.00    4.00    4.00    3.53    2.69    2.82    2.31    2.12      0      0      0       0     114 16.10
 2021 171    67    50   18.0      3   2.80   2731   1184      0   1554   3915   3930      0    0.0  0.000     15      0  0.000  0.000  0.194  0.000  0.000  0.000  0.000   1.51   0.00   0.00      0     15    102.3   1.52   0.00   1.00    4.00    4.00    3.63    2.77    2.89    2.37    2.18      0      0      0       0     122 17.10
 2021 172    68    51   19.0      3   2.77   2776   1274      0   1627   4049   4076      0    0.0  0.000     26      0  0.000  0.000  0.197  0.000  0.000  0.000  0.000   1.48   0.00   0.01      0     26     99.8   1.52   0.00   1.00    4.00    4.00    3.82    2.90    3.02    2.46    2.28      0      0      0       0     129 16.60
 2021 173    69    52   19.0      3   2.74   2816   1360      0   1661   4176   4213      0    0.0  0.000     37      0  0.000  0.000  0.200  0.000  0.000  0.000  0.000   1.45   0.00   0.01      0     37     97.3   1.52   0.00   1.00    4.00    4.00    3.90    2.96    3.08    2.51    2.33      0      0      0       0     138 16.30
 2021 174    70    53   20.0      3   2.71   2852   1438      0   1729   4290   4347      0    0.0  0.000     56      0  0.000  0.000  0.205  0.000  0.000  0.000  0.000   1.43   0.00   0.01      0     56     94.9   1.52   0.00   1.00    4.00    4.00    4.00    3.08    3.20    2.60    2.42      0      0      0       0     146 16.20
 2021 175    71    54   20.0      3   2.67   2884   1505      0   1779   4389   4467      0    0.0  0.000     77      0  0.000  0.000  0.209  0.000  0.000  0.000  0.000   1.42   0.00   0.02      0     77     92.5   1.52   0.00   1.00    4.00    4.00    4.00    3.17    3.29    2.67    2.49      0      0      0       0     155 14.90
 2021 176    72    55   20.0      3   2.64   2921   1576      0   1844   4496   4608      0    0.0  0.000    112      0  0.000  0.000  0.208  0.000  0.000  0.000  0.000   1.39   0.00   0.02      0    112     90.2   1.52   0.00   1.00    4.00    4.00    4.00    3.29    3.41    2.76    2.57      0      0      0       0     163 17.80
 2021 177    73    56   21.0      3   2.60   2953   1632      0   1908   4585   4742      0    0.0  0.000    157      0  0.000  0.000  0.206  0.000  0.000  0.000  0.000   1.38   0.00   0.03      0    157     88.0   1.52   0.00   1.00    4.00    4.00    4.00    3.40    3.52    2.84    2.66      0      0      0       0     173 16.90
 2021 178    74    57   21.0      3   2.56   2985   1672      0   1972   4657   4870      0    0.0  0.000    213      0  0.000  0.100  0.210  0.000  0.000  0.000  0.000   1.37   0.00   0.04      0    213     85.9   1.52   0.00   1.00    4.00    4.00    4.00    3.52    3.64    2.93    2.75      0      0      0       0     182 16.30
 2021 179    75    58   21.0      3   2.53   3017   1701      0   2029   4718   4999      0    0.0  0.000    281      0  0.000  0.315  0.212  0.000  0.000  0.000  0.000   1.36   0.00   0.06      0    281     83.9   1.52   0.00   1.00    3.98    4.00    4.00    3.64    3.75    3.02    2.84      0      0      0       0     192 16.60
 2021 180    76    59   21.0      3   2.49   3046   1716      0   2076   4762   5116      0    0.0  0.000    354      0  0.095  0.397  0.213  0.000  0.000  0.000  0.000   1.35   0.00   0.07      0    354     81.8   1.52   0.00   1.00    4.00    4.00    4.00    3.72    3.84    3.08    2.90      0      0      0       0     202 14.90
 2021 181    77    60   21.0      3   2.46   3076   1725      0   2113   4801   5237      0    0.0  0.000    436      0  0.275  0.517  0.211  0.000  0.000  0.000  0.000   1.34   0.00   0.08      0    436     79.9   1.52   0.00   1.00    3.98    4.00    4.00    3.80    3.91    3.13    2.96      0      0      0       0     213 15.70
 2021 182    78    61   21.0      3   2.41   3096   1756      0   2147   4852   5319      0    0.0  0.000    467      0  0.542  0.695  0.207  0.000  0.000  0.000  0.000   1.33   0.00   0.09      0    467     77.9   1.52   0.00   1.00    3.96    4.00    4.00    3.87    3.98    3.18    3.01      0      0      0       0     223 16.90
 2021 183    79    62   21.0      3   2.35   3113   1783      0   2174   4896   5390      0    0.0  0.000    493      0  0.598  0.732  0.202  0.000  0.000  0.000  0.000   1.33   0.00   0.09      0    493     75.6   1.52   0.00   1.00    3.94    4.00    4.00    3.92    4.00    3.23    3.05      0      0      0       0     234 16.60
 2021 184    80    63   21.0      4   2.28   3081   1886      0   2168   4967   5477      0    0.0  0.000    510      0  0.666  0.778  0.200  0.000  0.000  0.000  0.000   1.31   0.00   0.09      0    510     73.9   1.52   0.00   1.00    3.92    4.00    3.99    3.91    3.99    3.22    3.04      0      0      0       0     245 16.50
 2021 185    81    64   21.0      4   2.20   3047   1976      0   2162   5023   5550      0    0.0  0.000    527      0  0.647  0.765  0.199  0.000  0.000  0.000  0.000   1.30   0.00   0.09      0    527     72.3   1.52   0.00   1.00    3.90    3.98    3.99    3.90    3.98    3.21    3.04      0      0      0       0     256 15.40
 2021 186    82    65   21.0      4   2.13   3009   2050      0   2155   5059   5598      0    0.0  0.000    539      0  0.693  0.796  0.198  0.000  0.000  0.000  0.000   1.29   0.00   0.10      0    539     70.7   1.52   0.00   1.00    3.88    3.96    3.98    3.89    3.97    3.20    3.03      0      0      0       0     266 17.10
 2021 187    83    66   21.0      4   2.05   2969   2117      0   2148   5087   5635      0    0.0  0.000    549      0  0.759  0.840  0.197  0.000  0.000  0.000  0.000   1.28   0.00   0.10      0    549     68.9   1.52   0.00   1.00    3.86    3.94    3.96    3.88    3.96    3.19    3.02      0      0      0       0     277 17.20
 2021 188    84    67   21.0      4   1.96   2927   2180      0   2140   5107   5663      0    0.0  0.000    556      0  0.794  0.863  0.195  0.000  0.000  0.000  0.000   1.28   0.00   0.10      0    556     67.1   1.52   0.00   1.00    3.84    3.92    3.94    3.87    3.95    3.18    3.01      0      0      0       0     288 16.60
 2021 189    85    68   21.0      4   1.88   2881   2229      0   2132   5110   5672      0    0.0  0.000    562      0  0.817  0.879  0.193  0.000  0.000  0.000  0.000   1.27   0.00   0.10      0    562     65.4   1.52   0.00   1.00    3.82    3.90    3.92    3.85    3.93    3.18    3.01      0      0      0       0     299 17.40
 2021 190    86    69   21.0      4   1.80   2833   2256      0   2122   5089   5653      0    0.0  0.000    563      0  0.905  0.937  0.190  0.000  0.000  0.000  0.000   1.28   0.00   0.10      0    563     63.5   1.52   0.00   1.00    3.80    3.88    3.90    3.83    3.91    3.17    3.00      0      0      0       0     309 17.90
 2021 191    87    70   21.0      4   1.72   2782   2282      0   2113   5064   5629      0    0.0  0.000    565      0  0.880  0.921  0.186  0.000  0.000  0.000  0.000   1.30   0.00   0.10      0    565     61.8   1.52   0.00   1.00    3.82    3.86    3.88    3.81    3.89    3.15    2.98      0      0      0       0     320 16.50
 2021 192    88    71   21.0      4   1.68   2729   2376      0   2110   5105   5756      0    0.0  0.000    651      0  0.000  0.000  0.177  0.000  0.000  0.000  0.000   1.29   0.00   0.11      0    651     61.6   1.52   0.00   1.00    3.85    3.88    3.86    3.79    3.87    3.15    2.99      0      0      0       0     330 15.40
 2021 193    89    72   21.0      4   1.65   2673   2485      0   2109   5159   5918      0    0.0  0.000    759      0  0.000  0.000  0.169  0.000  0.000  0.000  0.000   1.28   0.00   0.13      0    759     61.6   1.52   0.00   1.00    3.92    3.94    3.84    3.77    3.85    3.14    3.01      0      0      0       0     341 16.90
 2021 194    90    73   21.0      5   1.61   2673   2485     91   2131   5159   6008    991    9.1  0.015    850      6  0.144  0.430  0.166  0.000  0.000  0.000  0.000   1.26  10.66   0.14      0    850     60.3   1.52   0.00   1.00    4.00    4.00    3.82    3.75    3.83    3.12    3.11      0      0      0       0     352 17.30
 2021 195    91    74   21.0      5   1.58   2673   2485    160   2144   5159   6078    991   16.2  0.026    919      6  0.181  0.455  0.173  0.000  0.000  0.000  0.000   1.25  17.42   0.15      0    919     59.0   1.52   0.00   1.00    4.00    4.00    3.80    3.73    3.81    3.11    3.09      0      0      0       0     362 15.20
 2021 196    92    75   21.0      5   1.54   2673   2485    237   2164   5159   6155    991   24.0  0.039    996      6  0.000  0.000  0.172  0.000  0.000  0.000  0.000   1.24  23.83   0.16      0    996     57.7   1.52   0.00   1.00    4.00    4.00    3.78    3.71    3.79    3.09    3.07      0      0      0       0     373 15.50
 2021 197    93    76   21.0      5   1.51   2673   2485    315   2190   5159   6232    991   31.8  0.050   1074      6  0.000  0.000  0.173  0.000  0.000  0.000  0.000   1.22  29.31   0.17      0   1074     56.5   1.52   0.00   1.00    4.00    4.00    3.76    3.70    3.77    3.08    3.06      0      0      0       0     384 14.90
 2021 198    94    77   21.0      5   1.48   2673   2485    392   2221   5159   6310    991   39.6  0.062   1151      6  0.000  0.000  0.173  0.000  0.000  0.000  0.000   1.21  34.06   0.18      0   1151     55.3   1.52   0.00   1.00    4.00    4.00    3.74    3.68    3.75    3.06    3.04      0      0      0       0     395 15.40
 2021 199    95    78   21.0      5   1.45   2673   2485    452   2238   5159   6369    991   45.6  0.071   1211      6  0.409  0.606  0.173  0.000  0.000  0.000  0.000   1.19  37.32   0.19      0   1211     54.1   1.52   0.00   1.00    4.00    4.00    3.73    3.66    3.73    3.04    3.03      0      0      0       0     406 14.40
 2021 200    96    79   21.0      5   1.39   2673   2485    495   2227   5158   6412    991   49.9  0.077   1253      6  0.815  0.877  0.173  0.000  0.000  0.000  0.000   1.18  39.45   0.20      0   1253     51.9   1.52   0.00   1.00    4.00    4.00    3.73    3.66    3.73    3.04    3.03      0      0      0       0     417 15.30
 2021 201    97    80   21.0      5   1.32   2673   2469    533   2216   5143   6435    991   53.8  0.083   1292      6  0.905  0.937  0.171  0.000  0.000  0.000  0.000   1.18  41.27   0.20      0   1292     49.5   1.52   0.00   1.00    4.00    4.00    3.73    3.66    3.73    3.04    3.03      0      0      0       0     428 16.20
 2021 202    98    81   21.0      5   1.26   2673   2449    571   2205   5122   6453    991   57.7  0.089   1330      6  0.924  0.950  0.170  0.000  0.000  0.000  0.000   1.17  42.95   0.21      0   1330     47.2   1.52   0.00   1.00    4.00    4.00    3.73    3.66    3.73    3.04    3.03      0      0      0       0     439 15.50
 2021 203    99    82   21.0      5   1.20   2673   2426    609   2194   5099   6466    991   61.4  0.094   1368      6  0.940  0.960  0.167  0.000  0.000  0.000  0.000   1.17  44.51   0.21      0   1368     45.0   1.52   0.00   1.00    4.00    4.00    3.73    3.66    3.73    3.04    3.03      0      0      0       0     450 17.20
 2021 204   100    83   21.0      5   1.15   2673   2403    647   2183   5077   6482    991   65.3  0.100   1406      6  0.917  0.945  0.164  0.000  0.000  0.000  0.000   1.16  46.02   0.22      0   1406     43.0   1.52   0.00   1.00    4.00    4.00    3.73    3.66    3.73    3.04    3.03      0      0      0       0     461 15.20
 2021 205   101    84   21.0      5   1.09   2673   2376    684   2172   5049   6492    991   69.0  0.105   1443      6  0.953  0.969  0.161  0.000  0.000  0.000  0.000   1.16  47.39   0.22      0   1443     40.9   1.52   0.00   1.00    4.00    4.00    3.73    3.66    3.73    3.04    3.03      0      0      0       0     472 16.60
 2021 206   102    85   21.0      5   1.06   2673   2389    734   2167   5062   6556    991   74.1  0.112   1493      6  0.626  0.751  0.156  0.000  0.000  0.000  0.000   1.15  49.18   0.23      0   1493     39.6   1.52   0.00   1.00    4.00    3.98    3.71    3.64    3.71    3.03    3.01      0      0      0       0     483 16.50
 2021 207   103    86   21.0      5   1.01   2673   2367    772   2157   5040   6571    991   77.9  0.117   1531      6  0.936  0.958  0.154  0.000  0.000  0.000  0.000   1.14  50.42   0.23      0   1531     37.8   1.52   0.00   1.00    4.00    3.98    3.71    3.64    3.71    3.03    3.01      0      0      0       0     494 15.90
 2021 208   104    87   21.0      5   0.96   2673   2335    807   2146   5009   6575    991   81.5  0.123   1566      6  0.982  0.989  0.153  0.000  0.000  0.000  0.000   1.14  51.55   0.24      0   1566     35.9   1.52   0.00   1.00    4.00    3.98    3.71    3.64    3.71    3.03    3.01      0      0      0       0     494 17.10
 2021 209   105    88   21.0      5   0.91   2673   2300    843   2135   4973   6575    991   85.1  0.128   1602      6  1.000  1.000  0.150  0.000  0.000  0.000  0.000   1.14  52.62   0.24      0   1602     34.1   1.52   0.00   1.00    4.00    3.98    3.71    3.64    3.71    3.03    3.01      0      0      0       0     494 16.35
 2021 210   106    89   21.0      5   0.87   2673   2264    878   2124   4938   6575    991   88.7  0.134   1637      6  1.000  1.000  0.146  0.000  0.000  0.000  0.000   1.14  53.65   0.25      0   1637     32.4   1.52   0.00   1.00    4.00    3.98    3.71    3.64    3.71    3.03    3.01      0      0      0       0     494 14.20
 2021 211   107    90   21.0      5   0.82   2673   2229    914   2114   4902   6575    991   92.2  0.139   1673      6  1.000  1.000  0.141  0.000  0.000  0.000  0.000   1.14  54.63   0.25      0   1673     30.8   1.52   0.00   1.00    4.00    3.98    3.71    3.64    3.71    3.03    3.01      0      0      0       0     494 16.60
 2021 212   108    91   21.0      5   0.78   2673   2193    950   2103   4867   6575    991   95.8  0.144   1708      6  1.000  1.000  0.136  0.000  0.000  0.000  0.000   1.14  55.58   0.26      0   1708     29.3   1.52   0.00   1.00    4.00    3.98    3.71    3.64    3.71    3.03    3.01      0      0      0       0     504 16.70
 2021 213   109    92   21.0      5   0.77   2673   2227   1027   2110   4900   6686    991  103.6  0.154   1786      6  0.000  0.000  0.129  0.000  0.000  0.000  0.000   1.11  57.50   0.27      0   1786     28.8   1.52   0.00   1.00    4.00    3.96    3.69    3.62    3.69    3.01    2.99      0      0      0       0     515 15.80
 2021 214   110    93   21.0      5   0.76   2673   2277   1104   2124   4951   6814    991  111.4  0.162   1863      6  0.000  0.000  0.128  0.000  0.000  0.000  0.000   1.08  59.26   0.27      0   1863     28.3   1.52   0.00   1.00    4.00    3.96    3.69    3.62    3.69    3.01    2.99      0      0      0       0     515 15.60
 2021 215   111    94   21.0      5   0.72   2673   2200   1181   2139   4873   6814    991  119.2  0.173   1940      6  1.000  1.000  0.134  0.000  0.000  0.000  0.000   1.07  60.89   0.28      0   1940     26.9   1.52   0.00   1.00    4.00    3.96    3.69    3.62    3.69    3.01    2.99      0      0      0       0     515 16.00
 2021 216   112    95   21.0      5   0.68   2673   2123   1259   2153   4796   6814    991  127.0  0.185   2018      6  1.000  1.000  0.142  0.000  0.000  0.000  0.000   1.07  62.38   0.30      0   2018     25.6   1.52   0.00   1.00    4.00    3.96    3.69    3.62    3.69    3.01    2.99      0      0      0       0     515 16.30
 2021 217   113    96   21.0      5   0.65   2673   2045   1336   2168   4719   6814    991  134.8  0.196   2095      6  1.000  1.000  0.139  0.000  0.000  0.000  0.000   1.06  63.77   0.31      0   2095     24.3   1.52   0.00   1.00    4.00    3.96    3.69    3.62    3.69    3.01    2.99      0      0      0       0     515 15.80
 2021 218   114    97   21.0      5   0.62   2673   1968   1413   2182   4641   6814    991  142.6  0.207   2172      6  1.000  1.000  0.136  0.000  0.000  0.000  0.000   1.06  65.06   0.32      0   2172     23.1   1.52   0.00   1.00    4.00    3.96    3.69    3.62    3.69    3.01    2.99      0      0      0       0     515 16.30
 2021 219   115    98   21.0      5   0.59   2673   1891   1491   2196   4564   6814    991  150.4  0.219   2249      6  1.000  1.000  0.133  0.000  0.000  0.000  0.000   1.05  66.26   0.33      0   2249     21.9   1.52   0.00   1.00    4.00    3.96    3.69    3.62    3.69    3.01    2.99      0      0      0       0     515 16.30
 2021 220   116    99   21.0      5   0.56   2673   1814   1568   2210   4487   6814    991  158.2  0.230   2327      6  1.000  1.000  0.129  0.000  0.000  0.000  0.000   1.04  67.38   0.34      0   2327     20.8   1.52   0.00   1.00    4.00    3.96    3.69    3.62    3.69    3.01    2.99      0      0      0       0     515 17.87
 2021 221   117   100   21.0      5   0.53   2673   1736   1645   2199   4410   6814    991  166.0  0.241   2404      6  1.000  1.000  0.126  0.000  0.000  0.000  0.000   1.04  68.43   0.35      0   2404     19.8   1.52   0.00   1.00    4.00    3.96    3.69    3.62    3.69    3.01    2.99      0      0      0       0     515 16.60
 2021 222   118   101   21.0      5   0.53   2673   1736   1645   2199   4410   6814    991  166.0  0.241   2404      6  1.000  1.000  0.000  0.000  0.000  0.000  0.000   1.04  68.43   0.35      0   2404     19.8   1.52   0.00   1.00    4.00    3.96    3.69    3.62    3.69    3.01    2.99      0      0      0       0     515 17.20
 2021 223   119   102   21.0      5   0.53   2673   1736   1645   2199   4410   6814    991  166.0  0.241   2404      6  0.000  1.000  0.000  0.000  0.000  0.000  0.000   1.04  68.43   0.35      0   2404     19.8   1.52   0.00   1.00    4.00    3.96    3.69    3.62    3.69    3.01    2.99      0      0      0       0     515  0.00
