*DSSAT Cropping System Model Ver. 4.7.5.036   -develop    MAY 01, 2021; 15:30:54

 Unit  Filename
  501  OPCLR
   21  FILEIO
   14  BATCH 
   11  FILEW
  115  OUTINFO
  502  SIMCDE
   25  DSPRO
   22  DTACDE
  119  WARNING.OUT
  503  RUNLST
   93  OUTO
   10  FILEC
   39  OUTG
  504  OUTS
   89  SEVAL
  505  FILECO2
   52  OUTWTH
  506  FILEF
   13  FILESS
    8  FILEA
